
     RDKit          3D

 26 29  0  0  0  0  0  0  0  0999 V2000
   -3.2808  -10.0857   -9.8241 O   0  0  0  0  0  0  0  0  0  0  0  0
   -3.2861   -8.9351  -10.6513 C   0  0  0  0  0  0  0  0  0  0  0  0
   -4.6466   -8.8410  -11.2411 C   0  0  0  0  0  0  0  0  0  0  0  0
   -5.1711   -7.4708  -11.4834 C   0  0  0  0  0  0  0  0  0  0  0  0
   -4.0271   -6.5000  -11.5801 C   0  0  0  0  0  0  0  0  0  0  0  0
   -3.3653   -6.4560  -10.2203 C   0  0  0  0  0  0  0  0  0  0  0  0
   -2.8521   -7.8007   -9.7945 C   0  0  0  0  0  0  0  0  0  0  0  0
   -2.8047   -7.0502  -12.7928 S   0  0  0  0  0  0  0  0  0  0  0  0
   -1.3560   -5.9731  -12.8175 C   0  0  0  0  0  0  0  0  0  0  0  0
   -0.8047   -5.9814  -14.2051 C   0  0  0  0  0  0  0  0  0  0  0  0
   -1.2398   -5.1292  -15.1489 N   0  0  0  0  0  0  0  0  0  0  0  0
   -0.7408   -5.1328  -16.4083 C   0  0  0  0  0  0  0  0  0  0  0  0
   -1.1892   -4.2594  -17.3713 C   0  0  0  0  0  0  0  0  0  0  0  0
   -0.6724   -4.2605  -18.6839 C   0  0  0  0  0  0  0  0  0  0  0  0
    0.3082   -5.1648  -18.9998 C   0  0  0  0  0  0  0  0  0  0  0  0
    0.7791   -6.0611  -18.0396 C   0  0  0  0  0  0  0  0  0  0  0  0
    0.2466   -6.0271  -16.7674 C   0  0  0  0  0  0  0  0  0  0  0  0
    0.6859   -6.8976  -15.7906 C   0  0  0  0  0  0  0  0  0  0  0  0
    1.5887   -7.7162  -16.1172 O   0  0  0  0  0  0  0  0  0  0  0  0
    0.1569   -6.8538  -14.5513 N   0  0  0  0  0  0  0  0  0  0  0  0
    1.7548   -6.9495  -18.3817 F   0  0  0  0  0  0  0  0  0  0  0  0
   -1.1507   -3.3828  -19.5796 O   0  0  0  0  0  0  0  0  0  0  0  0
   -0.8017   -2.9265  -20.8065 C   0  0  0  0  0  0  0  0  0  0  0  0
   -1.6975   -1.8982  -21.4505 C   0  0  0  0  0  0  0  0  0  0  0  0
   -1.9218   -2.0449  -22.9655 C   0  0  0  0  0  0  0  0  0  0  0  0
   -2.9854   -2.3600  -22.0058 C   0  0  0  0  0  0  0  0  0  0  0  0
  1  2  1  0
  2  3  1  0
  3  4  1  0
  4  5  1  0
  5  6  1  0
  6  7  1  0
  5  8  1  0
  8  9  1  0
  9 10  1  0
 10 11  2  0
 11 12  1  0
 12 13  2  0
 13 14  1  0
 14 15  2  0
 15 16  1  0
 16 17  2  0
 17 18  1  0
 18 19  2  0
 18 20  1  0
 16 21  1  0
 14 22  1  0
 22 23  1  0
 23 24  1  0
 24 25  1  0
 25 26  1  0
  7  2  1  0
 20 10  1  0
 17 12  1  0
 26 24  1  0
M  END
$$$$
