
     RDKit          3D

 26 29  0  0  0  0  0  0  0  0999 V2000
   -2.7395   -3.1358   -8.1835 O   0  0  0  0  0  0  0  0  0  0  0  0
   -2.2973   -3.6258   -9.4375 C   0  0  0  0  0  0  0  0  0  0  0  0
   -1.3020   -2.6485   -9.9495 C   0  0  0  0  0  0  0  0  0  0  0  0
   -0.1837   -3.2025  -10.7579 C   0  0  0  0  0  0  0  0  0  0  0  0
   -0.5819   -4.5359  -11.3271 C   0  0  0  0  0  0  0  0  0  0  0  0
   -0.7584   -5.4825  -10.1602 C   0  0  0  0  0  0  0  0  0  0  0  0
   -1.8096   -5.0094   -9.1989 C   0  0  0  0  0  0  0  0  0  0  0  0
   -2.1527   -4.4240  -12.2147 S   0  0  0  0  0  0  0  0  0  0  0  0
   -2.4655   -5.8987  -13.2081 C   0  0  0  0  0  0  0  0  0  0  0  0
   -1.5822   -5.8349  -14.4103 C   0  0  0  0  0  0  0  0  0  0  0  0
   -1.8262   -4.9926  -15.4289 N   0  0  0  0  0  0  0  0  0  0  0  0
   -1.0261   -4.9308  -16.5202 C   0  0  0  0  0  0  0  0  0  0  0  0
   -1.2798   -4.0679  -17.5606 C   0  0  0  0  0  0  0  0  0  0  0  0
   -0.4493   -4.0011  -18.6989 C   0  0  0  0  0  0  0  0  0  0  0  0
    0.6434   -4.8266  -18.7606 C   0  0  0  0  0  0  0  0  0  0  0  0
    0.9210   -5.7107  -17.7173 C   0  0  0  0  0  0  0  0  0  0  0  0
    0.0832   -5.7448  -16.6219 C   0  0  0  0  0  0  0  0  0  0  0  0
    0.3243   -6.6058  -15.5705 C   0  0  0  0  0  0  0  0  0  0  0  0
    1.3383   -7.3510  -15.6617 O   0  0  0  0  0  0  0  0  0  0  0  0
   -0.5025   -6.6292  -14.5059 N   0  0  0  0  0  0  0  0  0  0  0  0
    2.0144   -6.5201  -17.8054 F   0  0  0  0  0  0  0  0  0  0  0  0
   -0.7490   -3.1376  -19.6818 O   0  0  0  0  0  0  0  0  0  0  0  0
   -0.1787   -2.7060  -20.8323 C   0  0  0  0  0  0  0  0  0  0  0  0
   -0.9641   -1.7380  -21.6813 C   0  0  0  0  0  0  0  0  0  0  0  0
   -1.0126   -2.0402  -23.1891 C   0  0  0  0  0  0  0  0  0  0  0  0
   -2.1899   -2.2366  -22.3365 C   0  0  0  0  0  0  0  0  0  0  0  0
  1  2  1  0
  2  3  1  0
  3  4  1  0
  4  5  1  0
  5  6  1  0
  6  7  1  0
  5  8  1  0
  8  9  1  0
  9 10  1  0
 10 11  2  0
 11 12  1  0
 12 13  2  0
 13 14  1  0
 14 15  2  0
 15 16  1  0
 16 17  2  0
 17 18  1  0
 18 19  2  0
 18 20  1  0
 16 21  1  0
 14 22  1  0
 22 23  1  0
 23 24  1  0
 24 25  1  0
 25 26  1  0
  7  2  1  0
 20 10  1  0
 17 12  1  0
 26 24  1  0
M  END
$$$$
