
     RDKit          3D

 26 29  0  0  0  0  0  0  0  0999 V2000
   -2.8880   -9.3030   -8.9473 O   0  0  0  0  0  0  0  0  0  0  0  0
   -2.9118   -8.5630  -10.1556 C   0  0  0  0  0  0  0  0  0  0  0  0
   -3.7925   -9.3069  -11.0931 C   0  0  0  0  0  0  0  0  0  0  0  0
   -4.5846   -8.4888  -12.0494 C   0  0  0  0  0  0  0  0  0  0  0  0
   -3.9357   -7.1438  -12.2242 C   0  0  0  0  0  0  0  0  0  0  0  0
   -4.0269   -6.4299  -10.8935 C   0  0  0  0  0  0  0  0  0  0  0  0
   -3.3365   -7.1850   -9.7952 C   0  0  0  0  0  0  0  0  0  0  0  0
   -2.1903   -7.3131  -12.6632 S   0  0  0  0  0  0  0  0  0  0  0  0
   -1.4589   -5.7267  -13.1192 C   0  0  0  0  0  0  0  0  0  0  0  0
   -0.8251   -5.8855  -14.4618 C   0  0  0  0  0  0  0  0  0  0  0  0
   -1.1713   -5.1158  -15.5078 N   0  0  0  0  0  0  0  0  0  0  0  0
   -0.5972   -5.2560  -16.7268 C   0  0  0  0  0  0  0  0  0  0  0  0
   -0.9548   -4.4666  -17.7947 C   0  0  0  0  0  0  0  0  0  0  0  0
   -0.3597   -4.6100  -19.0656 C   0  0  0  0  0  0  0  0  0  0  0  0
    0.6053   -5.5695  -19.2314 C   0  0  0  0  0  0  0  0  0  0  0  0
    0.9845   -6.3825  -18.1626 C   0  0  0  0  0  0  0  0  0  0  0  0
    0.3775   -6.2099  -16.9360 C   0  0  0  0  0  0  0  0  0  0  0  0
    0.7251   -6.9947  -15.8552 C   0  0  0  0  0  0  0  0  0  0  0  0
    1.6162   -7.8676  -16.0447 O   0  0  0  0  0  0  0  0  0  0  0  0
    0.1238   -6.8156  -14.6619 N   0  0  0  0  0  0  0  0  0  0  0  0
    1.9467   -7.3286  -18.3562 F   0  0  0  0  0  0  0  0  0  0  0  0
   -0.7509   -3.8090  -20.0690 O   0  0  0  0  0  0  0  0  0  0  0  0
   -1.5719   -2.7429  -20.2258 C   0  0  0  0  0  0  0  0  0  0  0  0
   -1.7005   -2.1575  -21.6098 C   0  0  0  0  0  0  0  0  0  0  0  0
   -1.5384   -0.6316  -21.7205 C   0  0  0  0  0  0  0  0  0  0  0  0
   -0.4994   -1.5437  -22.2106 C   0  0  0  0  0  0  0  0  0  0  0  0
  1  2  1  0
  2  3  1  0
  3  4  1  0
  4  5  1  0
  5  6  1  0
  6  7  1  0
  5  8  1  0
  8  9  1  0
  9 10  1  0
 10 11  2  0
 11 12  1  0
 12 13  2  0
 13 14  1  0
 14 15  2  0
 15 16  1  0
 16 17  2  0
 17 18  1  0
 18 19  2  0
 18 20  1  0
 16 21  1  0
 14 22  1  0
 22 23  1  0
 23 24  1  0
 24 25  1  0
 25 26  1  0
  7  2  1  0
 20 10  1  0
 17 12  1  0
 26 24  1  0
M  END
$$$$
