
     RDKit          3D

 26 29  0  0  0  0  0  0  0  0999 V2000
   -3.4619   -9.3430   -8.7587 O   0  0  0  0  0  0  0  0  0  0  0  0
   -3.2573   -8.7127  -10.0113 C   0  0  0  0  0  0  0  0  0  0  0  0
   -3.6407   -9.7008  -11.0528 C   0  0  0  0  0  0  0  0  0  0  0  0
   -4.2441   -9.1531  -12.2965 C   0  0  0  0  0  0  0  0  0  0  0  0
   -3.8520   -7.7106  -12.4574 C   0  0  0  0  0  0  0  0  0  0  0  0
   -4.4885   -6.9471  -11.3170 C   0  0  0  0  0  0  0  0  0  0  0  0
   -4.0358   -7.4470   -9.9760 C   0  0  0  0  0  0  0  0  0  0  0  0
   -2.0591   -7.5058  -12.3518 S   0  0  0  0  0  0  0  0  0  0  0  0
   -1.5560   -5.8143  -12.7331 C   0  0  0  0  0  0  0  0  0  0  0  0
   -0.9406   -5.8169  -14.0935 C   0  0  0  0  0  0  0  0  0  0  0  0
   -1.3313   -4.9608  -15.0531 N   0  0  0  0  0  0  0  0  0  0  0  0
   -0.7740   -4.9593  -16.2879 C   0  0  0  0  0  0  0  0  0  0  0  0
   -1.1773   -4.0819  -17.2672 C   0  0  0  0  0  0  0  0  0  0  0  0
   -0.5997   -4.0777  -18.5542 C   0  0  0  0  0  0  0  0  0  0  0  0
    0.3948   -4.9806  -18.8277 C   0  0  0  0  0  0  0  0  0  0  0  0
    0.8206   -5.8808  -17.8502 C   0  0  0  0  0  0  0  0  0  0  0  0
    0.2293   -5.8520  -16.6041 C   0  0  0  0  0  0  0  0  0  0  0  0
    0.6227   -6.7264  -15.6115 C   0  0  0  0  0  0  0  0  0  0  0  0
    1.5400   -7.5436  -15.8989 O   0  0  0  0  0  0  0  0  0  0  0  0
    0.0364   -6.6878  -14.3981 N   0  0  0  0  0  0  0  0  0  0  0  0
    1.8114   -6.7677  -18.1500 F   0  0  0  0  0  0  0  0  0  0  0  0
   -1.0359   -3.1963  -19.4677 O   0  0  0  0  0  0  0  0  0  0  0  0
   -0.6727   -2.7902  -20.7080 C   0  0  0  0  0  0  0  0  0  0  0  0
   -1.5125   -1.7259  -21.3687 C   0  0  0  0  0  0  0  0  0  0  0  0
   -1.8277   -1.9365  -22.8598 C   0  0  0  0  0  0  0  0  0  0  0  0
   -2.8618   -2.1053  -21.8333 C   0  0  0  0  0  0  0  0  0  0  0  0
  1  2  1  0
  2  3  1  0
  3  4  1  0
  4  5  1  0
  5  6  1  0
  6  7  1  0
  5  8  1  0
  8  9  1  0
  9 10  1  0
 10 11  2  0
 11 12  1  0
 12 13  2  0
 13 14  1  0
 14 15  2  0
 15 16  1  0
 16 17  2  0
 17 18  1  0
 18 19  2  0
 18 20  1  0
 16 21  1  0
 14 22  1  0
 22 23  1  0
 23 24  1  0
 24 25  1  0
 25 26  1  0
  7  2  1  0
 20 10  1  0
 17 12  1  0
 26 24  1  0
M  END
$$$$
