
     RDKit          3D

 26 29  0  0  0  0  0  0  0  0999 V2000
    0.3801   -3.2337   -8.5727 O   0  0  0  0  0  0  0  0  0  0  0  0
   -0.4336   -3.5797   -9.6801 C   0  0  0  0  0  0  0  0  0  0  0  0
   -1.2538   -4.7447   -9.2583 C   0  0  0  0  0  0  0  0  0  0  0  0
   -2.6230   -4.8343   -9.8313 C   0  0  0  0  0  0  0  0  0  0  0  0
   -2.6925   -4.0377  -11.1046 C   0  0  0  0  0  0  0  0  0  0  0  0
   -2.4935   -2.5851  -10.7316 C   0  0  0  0  0  0  0  0  0  0  0  0
   -1.1732   -2.3471  -10.0584 C   0  0  0  0  0  0  0  0  0  0  0  0
   -1.3782   -4.5191  -12.2484 S   0  0  0  0  0  0  0  0  0  0  0  0
   -1.8177   -5.9968  -13.1878 C   0  0  0  0  0  0  0  0  0  0  0  0
   -1.1183   -5.9251  -14.5050 C   0  0  0  0  0  0  0  0  0  0  0  0
   -1.4876   -5.0550  -15.4605 N   0  0  0  0  0  0  0  0  0  0  0  0
   -0.8542   -4.9860  -16.6560 C   0  0  0  0  0  0  0  0  0  0  0  0
   -1.2357   -4.0945  -17.6313 C   0  0  0  0  0  0  0  0  0  0  0  0
   -0.5790   -4.0201  -18.8775 C   0  0  0  0  0  0  0  0  0  0  0  0
    0.4721   -4.8675  -19.1145 C   0  0  0  0  0  0  0  0  0  0  0  0
    0.8773   -5.7807  -18.1403 C   0  0  0  0  0  0  0  0  0  0  0  0
    0.2079   -5.8213  -16.9347 C   0  0  0  0  0  0  0  0  0  0  0  0
    0.5786   -6.7108  -15.9467 C   0  0  0  0  0  0  0  0  0  0  0  0
    1.5497   -7.4756  -16.1998 O   0  0  0  0  0  0  0  0  0  0  0  0
   -0.0842   -6.7402  -14.7730 N   0  0  0  0  0  0  0  0  0  0  0  0
    1.9257   -6.6114  -18.4032 F   0  0  0  0  0  0  0  0  0  0  0  0
   -0.9977   -3.1284  -19.7892 O   0  0  0  0  0  0  0  0  0  0  0  0
   -0.5597   -2.6402  -20.9744 C   0  0  0  0  0  0  0  0  0  0  0  0
   -1.4292   -1.6282  -21.6776 C   0  0  0  0  0  0  0  0  0  0  0  0
   -1.0962   -1.3549  -23.1546 C   0  0  0  0  0  0  0  0  0  0  0  0
   -2.2950   -2.1091  -22.7729 C   0  0  0  0  0  0  0  0  0  0  0  0
  1  2  1  0
  2  3  1  0
  3  4  1  0
  4  5  1  0
  5  6  1  0
  6  7  1  0
  5  8  1  0
  8  9  1  0
  9 10  1  0
 10 11  2  0
 11 12  1  0
 12 13  2  0
 13 14  1  0
 14 15  2  0
 15 16  1  0
 16 17  2  0
 17 18  1  0
 18 19  2  0
 18 20  1  0
 16 21  1  0
 14 22  1  0
 22 23  1  0
 23 24  1  0
 24 25  1  0
 25 26  1  0
  7  2  1  0
 20 10  1  0
 17 12  1  0
 26 24  1  0
M  END
$$$$
