
     RDKit          3D

 26 29  0  0  0  0  0  0  0  0999 V2000
   -2.3033   -3.0263   -8.0702 O   0  0  0  0  0  0  0  0  0  0  0  0
   -1.9286   -3.6733   -9.2741 C   0  0  0  0  0  0  0  0  0  0  0  0
   -0.5974   -3.1320   -9.6518 C   0  0  0  0  0  0  0  0  0  0  0  0
    0.3301   -4.0707  -10.3370 C   0  0  0  0  0  0  0  0  0  0  0  0
   -0.4544   -5.1855  -10.9714 C   0  0  0  0  0  0  0  0  0  0  0  0
   -1.0901   -5.9763   -9.8492 C   0  0  0  0  0  0  0  0  0  0  0  0
   -2.0017   -5.1334   -9.0058 C   0  0  0  0  0  0  0  0  0  0  0  0
   -1.7688   -4.5385  -12.0302 S   0  0  0  0  0  0  0  0  0  0  0  0
   -2.3940   -5.7967  -13.1641 C   0  0  0  0  0  0  0  0  0  0  0  0
   -1.5683   -5.7417  -14.4069 C   0  0  0  0  0  0  0  0  0  0  0  0
   -1.8790   -4.9305  -15.4325 N   0  0  0  0  0  0  0  0  0  0  0  0
   -1.1313   -4.8768  -16.5608 C   0  0  0  0  0  0  0  0  0  0  0  0
   -1.4532   -4.0456  -17.6082 C   0  0  0  0  0  0  0  0  0  0  0  0
   -0.6773   -3.9874  -18.7850 C   0  0  0  0  0  0  0  0  0  0  0  0
    0.4312   -4.7885  -18.8778 C   0  0  0  0  0  0  0  0  0  0  0  0
    0.7776   -5.6401  -17.8281 C   0  0  0  0  0  0  0  0  0  0  0  0
   -0.0082   -5.6670  -16.6946 C   0  0  0  0  0  0  0  0  0  0  0  0
    0.3015   -6.4961  -15.6357 C   0  0  0  0  0  0  0  0  0  0  0  0
    1.3281   -7.2196  -15.7563 O   0  0  0  0  0  0  0  0  0  0  0  0
   -0.4751   -6.5128  -14.5338 N   0  0  0  0  0  0  0  0  0  0  0  0
    1.8852   -6.4258  -17.9478 F   0  0  0  0  0  0  0  0  0  0  0  0
   -1.0426   -3.1553  -19.7728 O   0  0  0  0  0  0  0  0  0  0  0  0
   -0.4739   -2.6161  -20.8778 C   0  0  0  0  0  0  0  0  0  0  0  0
   -1.3509   -1.7845  -21.7800 C   0  0  0  0  0  0  0  0  0  0  0  0
   -0.8415   -0.3703  -22.1084 C   0  0  0  0  0  0  0  0  0  0  0  0
   -0.8277   -1.4361  -23.1162 C   0  0  0  0  0  0  0  0  0  0  0  0
  1  2  1  0
  2  3  1  0
  3  4  1  0
  4  5  1  0
  5  6  1  0
  6  7  1  0
  5  8  1  0
  8  9  1  0
  9 10  1  0
 10 11  2  0
 11 12  1  0
 12 13  2  0
 13 14  1  0
 14 15  2  0
 15 16  1  0
 16 17  2  0
 17 18  1  0
 18 19  2  0
 18 20  1  0
 16 21  1  0
 14 22  1  0
 22 23  1  0
 23 24  1  0
 24 25  1  0
 25 26  1  0
  7  2  1  0
 20 10  1  0
 17 12  1  0
 26 24  1  0
M  END
$$$$
