
     RDKit          3D

 26 29  0  0  0  0  0  0  0  0999 V2000
   -3.3519   -9.6386   -8.9086 O   0  0  0  0  0  0  0  0  0  0  0  0
   -3.2317   -8.8840  -10.1021 C   0  0  0  0  0  0  0  0  0  0  0  0
   -3.8474   -9.6964  -11.1832 C   0  0  0  0  0  0  0  0  0  0  0  0
   -4.5323   -8.9457  -12.2688 C   0  0  0  0  0  0  0  0  0  0  0  0
   -4.0031   -7.5395  -12.3244 C   0  0  0  0  0  0  0  0  0  0  0  0
   -4.4063   -6.8614  -11.0335 C   0  0  0  0  0  0  0  0  0  0  0  0
   -3.8529   -7.5621   -9.8269 C   0  0  0  0  0  0  0  0  0  0  0  0
   -2.1991   -7.5249  -12.4382 S   0  0  0  0  0  0  0  0  0  0  0  0
   -1.5650   -5.8718  -12.7912 C   0  0  0  0  0  0  0  0  0  0  0  0
   -0.9528   -5.8990  -14.1528 C   0  0  0  0  0  0  0  0  0  0  0  0
   -1.3219   -5.0379  -15.1165 N   0  0  0  0  0  0  0  0  0  0  0  0
   -0.7674   -5.0586  -16.3523 C   0  0  0  0  0  0  0  0  0  0  0  0
   -1.1485   -4.1759  -17.3357 C   0  0  0  0  0  0  0  0  0  0  0  0
   -0.5739   -4.1948  -18.6239 C   0  0  0  0  0  0  0  0  0  0  0  0
    0.3949   -5.1263  -18.8943 C   0  0  0  0  0  0  0  0  0  0  0  0
    0.7978   -6.0323  -17.9125 C   0  0  0  0  0  0  0  0  0  0  0  0
    0.2102   -5.9803  -16.6655 C   0  0  0  0  0  0  0  0  0  0  0  0
    0.5816   -6.8597  -15.6687 C   0  0  0  0  0  0  0  0  0  0  0  0
    1.4754   -7.7034  -15.9533 O   0  0  0  0  0  0  0  0  0  0  0  0
   -0.0008   -6.7981  -14.4543 N   0  0  0  0  0  0  0  0  0  0  0  0
    1.7632   -6.9479  -18.2093 F   0  0  0  0  0  0  0  0  0  0  0  0
   -0.9876   -3.3069  -19.5415 O   0  0  0  0  0  0  0  0  0  0  0  0
   -0.6827   -2.9877  -20.8223 C   0  0  0  0  0  0  0  0  0  0  0  0
   -1.4291   -1.8387  -21.4527 C   0  0  0  0  0  0  0  0  0  0  0  0
   -1.6603   -1.9293  -22.9711 C   0  0  0  0  0  0  0  0  0  0  0  0
   -2.7631   -2.1157  -22.0220 C   0  0  0  0  0  0  0  0  0  0  0  0
  1  2  1  0
  2  3  1  0
  3  4  1  0
  4  5  1  0
  5  6  1  0
  6  7  1  0
  5  8  1  0
  8  9  1  0
  9 10  1  0
 10 11  2  0
 11 12  1  0
 12 13  2  0
 13 14  1  0
 14 15  2  0
 15 16  1  0
 16 17  2  0
 17 18  1  0
 18 19  2  0
 18 20  1  0
 16 21  1  0
 14 22  1  0
 22 23  1  0
 23 24  1  0
 24 25  1  0
 25 26  1  0
  7  2  1  0
 20 10  1  0
 17 12  1  0
 26 24  1  0
M  END
$$$$
