
     RDKit          3D

 26 29  0  0  0  0  0  0  0  0999 V2000
   -2.6557   -3.4261   -8.3304 O   0  0  0  0  0  0  0  0  0  0  0  0
   -2.2976   -3.7349   -9.6663 C   0  0  0  0  0  0  0  0  0  0  0  0
   -2.0189   -2.4414  -10.3423 C   0  0  0  0  0  0  0  0  0  0  0  0
   -0.9622   -2.4539  -11.3884 C   0  0  0  0  0  0  0  0  0  0  0  0
   -0.7795   -3.8531  -11.9075 C   0  0  0  0  0  0  0  0  0  0  0  0
   -0.2407   -4.6846  -10.7642 C   0  0  0  0  0  0  0  0  0  0  0  0
   -1.1703   -4.7003   -9.5858 C   0  0  0  0  0  0  0  0  0  0  0  0
   -2.3549   -4.5635  -12.4377 S   0  0  0  0  0  0  0  0  0  0  0  0
   -2.1487   -6.2344  -13.0899 C   0  0  0  0  0  0  0  0  0  0  0  0
   -1.3474   -6.1383  -14.3461 C   0  0  0  0  0  0  0  0  0  0  0  0
   -1.6355   -5.2443  -15.3075 N   0  0  0  0  0  0  0  0  0  0  0  0
   -0.9097   -5.1532  -16.4476 C   0  0  0  0  0  0  0  0  0  0  0  0
   -1.2083   -4.2373  -17.4292 C   0  0  0  0  0  0  0  0  0  0  0  0
   -0.4552   -4.1398  -18.6180 C   0  0  0  0  0  0  0  0  0  0  0  0
    0.6067   -4.9894  -18.7909 C   0  0  0  0  0  0  0  0  0  0  0  0
    0.9288   -5.9271  -17.8091 C   0  0  0  0  0  0  0  0  0  0  0  0
    0.1664   -5.9898  -16.6611 C   0  0  0  0  0  0  0  0  0  0  0  0
    0.4533   -6.9039  -15.6676 C   0  0  0  0  0  0  0  0  0  0  0  0
    1.4370   -7.6699  -15.8611 O   0  0  0  0  0  0  0  0  0  0  0  0
   -0.2999   -6.9548  -14.5507 N   0  0  0  0  0  0  0  0  0  0  0  0
    1.9900   -6.7594  -18.0078 F   0  0  0  0  0  0  0  0  0  0  0  0
   -0.7959   -3.2249  -19.5390 O   0  0  0  0  0  0  0  0  0  0  0  0
   -0.7258   -3.0982  -20.8859 C   0  0  0  0  0  0  0  0  0  0  0  0
   -1.2199   -1.8092  -21.4933 C   0  0  0  0  0  0  0  0  0  0  0  0
   -2.3696   -1.9324  -22.5082 C   0  0  0  0  0  0  0  0  0  0  0  0
   -2.5947   -1.3792  -21.1685 C   0  0  0  0  0  0  0  0  0  0  0  0
  1  2  1  0
  2  3  1  0
  3  4  1  0
  4  5  1  0
  5  6  1  0
  6  7  1  0
  5  8  1  0
  8  9  1  0
  9 10  1  0
 10 11  2  0
 11 12  1  0
 12 13  2  0
 13 14  1  0
 14 15  2  0
 15 16  1  0
 16 17  2  0
 17 18  1  0
 18 19  2  0
 18 20  1  0
 16 21  1  0
 14 22  1  0
 22 23  1  0
 23 24  1  0
 24 25  1  0
 25 26  1  0
  7  2  1  0
 20 10  1  0
 17 12  1  0
 26 24  1  0
M  END
$$$$
