
     RDKit          3D

 26 29  0  0  0  0  0  0  0  0999 V2000
   -3.1523   -9.3863   -8.7444 O   0  0  0  0  0  0  0  0  0  0  0  0
   -3.0989   -8.6734   -9.9680 C   0  0  0  0  0  0  0  0  0  0  0  0
   -3.7994   -9.5082  -10.9781 C   0  0  0  0  0  0  0  0  0  0  0  0
   -4.5420   -8.7800  -12.0407 C   0  0  0  0  0  0  0  0  0  0  0  0
   -3.9934   -7.3869  -12.1785 C   0  0  0  0  0  0  0  0  0  0  0  0
   -4.2978   -6.6595  -10.8873 C   0  0  0  0  0  0  0  0  0  0  0  0
   -3.6774   -7.3313   -9.6970 C   0  0  0  0  0  0  0  0  0  0  0  0
   -2.2010   -7.4113  -12.4117 S   0  0  0  0  0  0  0  0  0  0  0  0
   -1.5545   -5.7697  -12.7946 C   0  0  0  0  0  0  0  0  0  0  0  0
   -0.9435   -5.8259  -14.1558 C   0  0  0  0  0  0  0  0  0  0  0  0
   -1.3281   -4.9994  -15.1433 N   0  0  0  0  0  0  0  0  0  0  0  0
   -0.7748   -5.0464  -16.3789 C   0  0  0  0  0  0  0  0  0  0  0  0
   -1.1718   -4.1991  -17.3869 C   0  0  0  0  0  0  0  0  0  0  0  0
   -0.5984   -4.2456  -18.6749 C   0  0  0  0  0  0  0  0  0  0  0  0
    0.3855   -5.1681  -18.9199 C   0  0  0  0  0  0  0  0  0  0  0  0
    0.8047   -6.0386  -17.9130 C   0  0  0  0  0  0  0  0  0  0  0  0
    0.2178   -5.9604  -16.6670 C   0  0  0  0  0  0  0  0  0  0  0  0
    0.6050   -6.8042  -15.6459 C   0  0  0  0  0  0  0  0  0  0  0  0
    1.5126   -7.6407  -15.9075 O   0  0  0  0  0  0  0  0  0  0  0  0
    0.0231   -6.7174  -14.4328 N   0  0  0  0  0  0  0  0  0  0  0  0
    1.7850   -6.9460  -18.1848 F   0  0  0  0  0  0  0  0  0  0  0  0
   -1.0280   -3.3916  -19.6170 O   0  0  0  0  0  0  0  0  0  0  0  0
   -0.6141   -2.9667  -20.8350 C   0  0  0  0  0  0  0  0  0  0  0  0
   -1.4191   -1.8832  -21.5078 C   0  0  0  0  0  0  0  0  0  0  0  0
   -2.1583   -2.2856  -22.7957 C   0  0  0  0  0  0  0  0  0  0  0  0
   -2.8868   -2.0410  -21.5463 C   0  0  0  0  0  0  0  0  0  0  0  0
  1  2  1  0
  2  3  1  0
  3  4  1  0
  4  5  1  0
  5  6  1  0
  6  7  1  0
  5  8  1  0
  8  9  1  0
  9 10  1  0
 10 11  2  0
 11 12  1  0
 12 13  2  0
 13 14  1  0
 14 15  2  0
 15 16  1  0
 16 17  2  0
 17 18  1  0
 18 19  2  0
 18 20  1  0
 16 21  1  0
 14 22  1  0
 22 23  1  0
 23 24  1  0
 24 25  1  0
 25 26  1  0
  7  2  1  0
 20 10  1  0
 17 12  1  0
 26 24  1  0
M  END
$$$$
