
     RDKit          3D

 26 29  0  0  0  0  0  0  0  0999 V2000
   -3.1442   -9.9869   -9.3527 O   0  0  0  0  0  0  0  0  0  0  0  0
   -3.1554   -8.9713  -10.3409 C   0  0  0  0  0  0  0  0  0  0  0  0
   -4.2515   -9.3087  -11.2857 C   0  0  0  0  0  0  0  0  0  0  0  0
   -4.9727   -8.1633  -11.9012 C   0  0  0  0  0  0  0  0  0  0  0  0
   -4.1069   -6.9349  -11.8538 C   0  0  0  0  0  0  0  0  0  0  0  0
   -3.9253   -6.5750  -10.3956 C   0  0  0  0  0  0  0  0  0  0  0  0
   -3.2770   -7.6804   -9.6142 C   0  0  0  0  0  0  0  0  0  0  0  0
   -2.4786   -7.2558  -12.5702 S   0  0  0  0  0  0  0  0  0  0  0  0
   -1.5500   -5.7294  -12.8298 C   0  0  0  0  0  0  0  0  0  0  0  0
   -0.9327   -5.7962  -14.1877 C   0  0  0  0  0  0  0  0  0  0  0  0
   -1.3184   -4.9827  -15.1856 N   0  0  0  0  0  0  0  0  0  0  0  0
   -0.7594   -5.0393  -16.4183 C   0  0  0  0  0  0  0  0  0  0  0  0
   -1.1575   -4.2054  -17.4369 C   0  0  0  0  0  0  0  0  0  0  0  0
   -0.5781   -4.2618  -18.7219 C   0  0  0  0  0  0  0  0  0  0  0  0
    0.4129   -5.1804  -18.9527 C   0  0  0  0  0  0  0  0  0  0  0  0
    0.8334   -6.0373  -17.9348 C   0  0  0  0  0  0  0  0  0  0  0  0
    0.2405   -5.9497  -16.6923 C   0  0  0  0  0  0  0  0  0  0  0  0
    0.6287   -6.7800  -15.6605 C   0  0  0  0  0  0  0  0  0  0  0  0
    1.5429   -7.6133  -15.9092 O   0  0  0  0  0  0  0  0  0  0  0  0
    0.0409   -6.6841  -14.4510 N   0  0  0  0  0  0  0  0  0  0  0  0
    1.8208   -6.9411  -18.1927 F   0  0  0  0  0  0  0  0  0  0  0  0
   -1.0092   -3.4208  -19.6749 O   0  0  0  0  0  0  0  0  0  0  0  0
   -0.5954   -3.0099  -20.8977 C   0  0  0  0  0  0  0  0  0  0  0  0
   -1.5153   -2.1061  -21.6796 C   0  0  0  0  0  0  0  0  0  0  0  0
   -1.8287   -0.7405  -21.0440 C   0  0  0  0  0  0  0  0  0  0  0  0
   -0.9527   -0.8504  -22.2154 C   0  0  0  0  0  0  0  0  0  0  0  0
  1  2  1  0
  2  3  1  0
  3  4  1  0
  4  5  1  0
  5  6  1  0
  6  7  1  0
  5  8  1  0
  8  9  1  0
  9 10  1  0
 10 11  2  0
 11 12  1  0
 12 13  2  0
 13 14  1  0
 14 15  2  0
 15 16  1  0
 16 17  2  0
 17 18  1  0
 18 19  2  0
 18 20  1  0
 16 21  1  0
 14 22  1  0
 22 23  1  0
 23 24  1  0
 24 25  1  0
 25 26  1  0
  7  2  1  0
 20 10  1  0
 17 12  1  0
 26 24  1  0
M  END
$$$$
