
     RDKit          3D

 26 29  0  0  0  0  0  0  0  0999 V2000
   -3.0670   -9.8695   -9.1782 O   0  0  0  0  0  0  0  0  0  0  0  0
   -3.0629   -8.8966  -10.2085 C   0  0  0  0  0  0  0  0  0  0  0  0
   -4.0914   -9.3170  -11.1951 C   0  0  0  0  0  0  0  0  0  0  0  0
   -4.8213   -8.2282  -11.8971 C   0  0  0  0  0  0  0  0  0  0  0  0
   -4.0075   -6.9645  -11.8566 C   0  0  0  0  0  0  0  0  0  0  0  0
   -3.9205   -6.5380  -10.4078 C   0  0  0  0  0  0  0  0  0  0  0  0
   -3.2740   -7.5830   -9.5458 C   0  0  0  0  0  0  0  0  0  0  0  0
   -2.3310   -7.2478  -12.4704 S   0  0  0  0  0  0  0  0  0  0  0  0
   -1.4523   -5.6964  -12.7545 C   0  0  0  0  0  0  0  0  0  0  0  0
   -0.8657   -5.7489  -14.1266 C   0  0  0  0  0  0  0  0  0  0  0  0
   -1.2530   -4.9058  -15.0990 N   0  0  0  0  0  0  0  0  0  0  0  0
   -0.7217   -4.9494  -16.3443 C   0  0  0  0  0  0  0  0  0  0  0  0
   -1.1214   -4.0851  -17.3367 C   0  0  0  0  0  0  0  0  0  0  0  0
   -0.5709   -4.1279  -18.6348 C   0  0  0  0  0  0  0  0  0  0  0  0
    0.3928   -5.0643  -18.9059 C   0  0  0  0  0  0  0  0  0  0  0  0
    0.8144   -5.9520  -17.9153 C   0  0  0  0  0  0  0  0  0  0  0  0
    0.2502   -5.8768  -16.6586 C   0  0  0  0  0  0  0  0  0  0  0  0
    0.6404   -6.7376  -15.6528 C   0  0  0  0  0  0  0  0  0  0  0  0
    1.5290   -7.5865  -15.9384 O   0  0  0  0  0  0  0  0  0  0  0  0
    0.0808   -6.6535  -14.4292 N   0  0  0  0  0  0  0  0  0  0  0  0
    1.7743   -6.8729  -18.2130 F   0  0  0  0  0  0  0  0  0  0  0  0
   -1.0020   -3.2571  -19.5608 O   0  0  0  0  0  0  0  0  0  0  0  0
   -0.6469   -2.8832  -20.8135 C   0  0  0  0  0  0  0  0  0  0  0  0
   -1.4120   -1.7485  -21.4474 C   0  0  0  0  0  0  0  0  0  0  0  0
   -1.7221   -1.8918  -22.9475 C   0  0  0  0  0  0  0  0  0  0  0  0
   -2.7766   -2.0289  -21.9371 C   0  0  0  0  0  0  0  0  0  0  0  0
  1  2  1  0
  2  3  1  0
  3  4  1  0
  4  5  1  0
  5  6  1  0
  6  7  1  0
  5  8  1  0
  8  9  1  0
  9 10  1  0
 10 11  2  0
 11 12  1  0
 12 13  2  0
 13 14  1  0
 14 15  2  0
 15 16  1  0
 16 17  2  0
 17 18  1  0
 18 19  2  0
 18 20  1  0
 16 21  1  0
 14 22  1  0
 22 23  1  0
 23 24  1  0
 24 25  1  0
 25 26  1  0
  7  2  1  0
 20 10  1  0
 17 12  1  0
 26 24  1  0
M  END
$$$$
