
     RDKit          3D

 26 29  0  0  0  0  0  0  0  0999 V2000
   -2.5183   -2.7153   -8.3013 O   0  0  0  0  0  0  0  0  0  0  0  0
   -2.1411   -3.4576   -9.4480 C   0  0  0  0  0  0  0  0  0  0  0  0
   -0.7927   -2.9746   -9.8432 C   0  0  0  0  0  0  0  0  0  0  0  0
    0.1231   -3.9812  -10.4425 C   0  0  0  0  0  0  0  0  0  0  0  0
   -0.6772   -5.1228  -11.0054 C   0  0  0  0  0  0  0  0  0  0  0  0
   -1.3468   -5.8144   -9.8383 C   0  0  0  0  0  0  0  0  0  0  0  0
   -2.2511   -4.8919   -9.0740 C   0  0  0  0  0  0  0  0  0  0  0  0
   -1.9613   -4.5277  -12.1300 S   0  0  0  0  0  0  0  0  0  0  0  0
   -2.5392   -5.8332  -13.2352 C   0  0  0  0  0  0  0  0  0  0  0  0
   -1.6974   -5.7934  -14.4677 C   0  0  0  0  0  0  0  0  0  0  0  0
   -1.9840   -4.9811  -15.4994 N   0  0  0  0  0  0  0  0  0  0  0  0
   -1.2216   -4.9411  -16.6185 C   0  0  0  0  0  0  0  0  0  0  0  0
   -1.5187   -4.1088  -17.6722 C   0  0  0  0  0  0  0  0  0  0  0  0
   -0.7275   -4.0649  -18.8393 C   0  0  0  0  0  0  0  0  0  0  0  0
    0.3708   -4.8816  -18.9159 C   0  0  0  0  0  0  0  0  0  0  0  0
    0.6923   -5.7347  -17.8595 C   0  0  0  0  0  0  0  0  0  0  0  0
   -0.1080   -5.7472  -16.7359 C   0  0  0  0  0  0  0  0  0  0  0  0
    0.1769   -6.5774  -15.6708 C   0  0  0  0  0  0  0  0  0  0  0  0
    1.1949   -7.3153  -15.7764 O   0  0  0  0  0  0  0  0  0  0  0  0
   -0.6135   -6.5799  -14.5787 N   0  0  0  0  0  0  0  0  0  0  0  0
    1.7903   -6.5360  -17.9630 F   0  0  0  0  0  0  0  0  0  0  0  0
   -1.0688   -3.2309  -19.8340 O   0  0  0  0  0  0  0  0  0  0  0  0
   -0.4797   -2.7047  -20.9346 C   0  0  0  0  0  0  0  0  0  0  0  0
   -1.3365   -1.8726  -21.8555 C   0  0  0  0  0  0  0  0  0  0  0  0
   -0.8432   -0.4426  -22.1361 C   0  0  0  0  0  0  0  0  0  0  0  0
   -0.7672   -1.4877  -23.1626 C   0  0  0  0  0  0  0  0  0  0  0  0
  1  2  1  0
  2  3  1  0
  3  4  1  0
  4  5  1  0
  5  6  1  0
  6  7  1  0
  5  8  1  0
  8  9  1  0
  9 10  1  0
 10 11  2  0
 11 12  1  0
 12 13  2  0
 13 14  1  0
 14 15  2  0
 15 16  1  0
 16 17  2  0
 17 18  1  0
 18 19  2  0
 18 20  1  0
 16 21  1  0
 14 22  1  0
 22 23  1  0
 23 24  1  0
 24 25  1  0
 25 26  1  0
  7  2  1  0
 20 10  1  0
 17 12  1  0
 26 24  1  0
M  END
$$$$
