
     RDKit          3D

 26 29  0  0  0  0  0  0  0  0999 V2000
   -5.6980   -9.0307   -9.8739 O   0  0  0  0  0  0  0  0  0  0  0  0
   -4.5619   -8.6383  -10.6245 C   0  0  0  0  0  0  0  0  0  0  0  0
   -3.8420   -7.6257   -9.8095 C   0  0  0  0  0  0  0  0  0  0  0  0
   -2.3600   -7.6098   -9.9290 C   0  0  0  0  0  0  0  0  0  0  0  0
   -1.9494   -8.2472  -11.2273 C   0  0  0  0  0  0  0  0  0  0  0  0
   -2.3434   -9.7058  -11.1506 C   0  0  0  0  0  0  0  0  0  0  0  0
   -3.8192   -9.8856  -10.9442 C   0  0  0  0  0  0  0  0  0  0  0  0
   -2.8131   -7.4949  -12.6257 S   0  0  0  0  0  0  0  0  0  0  0  0
   -2.2608   -5.8013  -12.9197 C   0  0  0  0  0  0  0  0  0  0  0  0
   -1.4860   -5.7890  -14.1960 C   0  0  0  0  0  0  0  0  0  0  0  0
   -1.7747   -4.9382  -15.1956 N   0  0  0  0  0  0  0  0  0  0  0  0
   -1.0729   -4.9231  -16.3542 C   0  0  0  0  0  0  0  0  0  0  0  0
   -1.3720   -4.0512  -17.3749 C   0  0  0  0  0  0  0  0  0  0  0  0
   -0.6438   -4.0329  -18.5830 C   0  0  0  0  0  0  0  0  0  0  0  0
    0.3935   -4.9162  -18.7348 C   0  0  0  0  0  0  0  0  0  0  0  0
    0.7156   -5.8104  -17.7132 C   0  0  0  0  0  0  0  0  0  0  0  0
   -0.0219   -5.7959  -16.5474 C   0  0  0  0  0  0  0  0  0  0  0  0
    0.2658   -6.6650  -15.5147 C   0  0  0  0  0  0  0  0  0  0  0  0
    1.2265   -7.4640  -15.6896 O   0  0  0  0  0  0  0  0  0  0  0  0
   -0.4630   -6.6405  -14.3807 N   0  0  0  0  0  0  0  0  0  0  0  0
    1.7521   -6.6777  -17.8915 F   0  0  0  0  0  0  0  0  0  0  0  0
   -0.9836   -3.1578  -19.5423 O   0  0  0  0  0  0  0  0  0  0  0  0
   -0.4010   -2.6047  -20.6331 C   0  0  0  0  0  0  0  0  0  0  0  0
   -1.2513   -1.7130  -21.5029 C   0  0  0  0  0  0  0  0  0  0  0  0
   -0.6328   -0.3620  -21.9017 C   0  0  0  0  0  0  0  0  0  0  0  0
   -0.7838   -1.4463  -22.8779 C   0  0  0  0  0  0  0  0  0  0  0  0
  1  2  1  0
  2  3  1  0
  3  4  1  0
  4  5  1  0
  5  6  1  0
  6  7  1  0
  5  8  1  0
  8  9  1  0
  9 10  1  0
 10 11  2  0
 11 12  1  0
 12 13  2  0
 13 14  1  0
 14 15  2  0
 15 16  1  0
 16 17  2  0
 17 18  1  0
 18 19  2  0
 18 20  1  0
 16 21  1  0
 14 22  1  0
 22 23  1  0
 23 24  1  0
 24 25  1  0
 25 26  1  0
  7  2  1  0
 20 10  1  0
 17 12  1  0
 26 24  1  0
M  END
$$$$
