
     RDKit          3D

 26 29  0  0  0  0  0  0  0  0999 V2000
    0.6599   -0.5731  -23.4549 O   0  0  0  0  0  0  0  0  0  0  0  0
    0.5415   -1.6396  -22.5294 C   0  0  0  0  0  0  0  0  0  0  0  0
   -0.1537   -1.0922  -21.3357 C   0  0  0  0  0  0  0  0  0  0  0  0
   -1.0498   -2.0261  -20.6036 C   0  0  0  0  0  0  0  0  0  0  0  0
   -0.6550   -3.4458  -20.9022 C   0  0  0  0  0  0  0  0  0  0  0  0
   -0.9225   -3.6817  -22.3724 C   0  0  0  0  0  0  0  0  0  0  0  0
   -0.1428   -2.7456  -23.2491 C   0  0  0  0  0  0  0  0  0  0  0  0
    1.1056   -3.7129  -20.5918 S   0  0  0  0  0  0  0  0  0  0  0  0
    1.4473   -5.4173  -20.1041 C   0  0  0  0  0  0  0  0  0  0  0  0
    1.0040   -5.5844  -18.6881 C   0  0  0  0  0  0  0  0  0  0  0  0
    0.1392   -4.7346  -18.1081 N   0  0  0  0  0  0  0  0  0  0  0  0
   -0.2665   -4.8841  -16.8243 C   0  0  0  0  0  0  0  0  0  0  0  0
   -1.1512   -4.0119  -16.2344 C   0  0  0  0  0  0  0  0  0  0  0  0
   -1.5755   -4.1640  -14.8976 C   0  0  0  0  0  0  0  0  0  0  0  0
   -1.0847   -5.2183  -14.1717 C   0  0  0  0  0  0  0  0  0  0  0  0
   -0.1858   -6.1162  -14.7486 C   0  0  0  0  0  0  0  0  0  0  0  0
    0.2039   -5.9314  -16.0590 C   0  0  0  0  0  0  0  0  0  0  0  0
    1.0914   -6.7977  -16.6644 C   0  0  0  0  0  0  0  0  0  0  0  0
    1.5227   -7.7559  -15.9661 O   0  0  0  0  0  0  0  0  0  0  0  0
    1.4642   -6.6055  -17.9457 N   0  0  0  0  0  0  0  0  0  0  0  0
    0.2861   -7.1553  -14.0032 F   0  0  0  0  0  0  0  0  0  0  0  0
   -2.4414   -3.2800  -14.3780 O   0  0  0  0  0  0  0  0  0  0  0  0
   -2.6897   -2.7283  -13.1659 C   0  0  0  0  0  0  0  0  0  0  0  0
   -3.2048   -1.3112  -13.1354 C   0  0  0  0  0  0  0  0  0  0  0  0
   -4.6508   -1.1236  -12.6447 C   0  0  0  0  0  0  0  0  0  0  0  0
   -3.5091   -0.7189  -11.8174 C   0  0  0  0  0  0  0  0  0  0  0  0
  1  2  1  0
  2  3  1  0
  3  4  1  0
  4  5  1  0
  5  6  1  0
  6  7  1  0
  5  8  1  0
  8  9  1  0
  9 10  1  0
 10 11  2  0
 11 12  1  0
 12 13  2  0
 13 14  1  0
 14 15  2  0
 15 16  1  0
 16 17  2  0
 17 18  1  0
 18 19  2  0
 18 20  1  0
 16 21  1  0
 14 22  1  0
 22 23  1  0
 23 24  1  0
 24 25  1  0
 25 26  1  0
  7  2  1  0
 20 10  1  0
 17 12  1  0
 26 24  1  0
M  END
$$$$
