
     RDKit          3D

 26 29  0  0  0  0  0  0  0  0999 V2000
   -3.0795   -9.6654   -9.0125 O   0  0  0  0  0  0  0  0  0  0  0  0
   -3.0814   -8.8015  -10.1359 C   0  0  0  0  0  0  0  0  0  0  0  0
   -4.0267   -9.3870  -11.1215 C   0  0  0  0  0  0  0  0  0  0  0  0
   -4.7849   -8.4256  -11.9652 C   0  0  0  0  0  0  0  0  0  0  0  0
   -4.0558   -7.1116  -12.0163 C   0  0  0  0  0  0  0  0  0  0  0  0
   -4.0741   -6.5384  -10.6163 C   0  0  0  0  0  0  0  0  0  0  0  0
   -3.4103   -7.4461   -9.6221 C   0  0  0  0  0  0  0  0  0  0  0  0
   -2.3342   -7.3393  -12.5179 S   0  0  0  0  0  0  0  0  0  0  0  0
   -1.5230   -5.7627  -12.8581 C   0  0  0  0  0  0  0  0  0  0  0  0
   -0.9222   -5.8437  -14.2226 C   0  0  0  0  0  0  0  0  0  0  0  0
   -1.3046   -5.0259  -15.2183 N   0  0  0  0  0  0  0  0  0  0  0  0
   -0.7604   -5.0954  -16.4570 C   0  0  0  0  0  0  0  0  0  0  0  0
   -1.1551   -4.2571  -17.4733 C   0  0  0  0  0  0  0  0  0  0  0  0
   -0.5912   -4.3269  -18.7645 C   0  0  0  0  0  0  0  0  0  0  0  0
    0.3808   -5.2634  -19.0039 C   0  0  0  0  0  0  0  0  0  0  0  0
    0.7974   -6.1251  -17.9885 C   0  0  0  0  0  0  0  0  0  0  0  0
    0.2201   -6.0240  -16.7397 C   0  0  0  0  0  0  0  0  0  0  0  0
    0.6051   -6.8586  -15.7101 C   0  0  0  0  0  0  0  0  0  0  0  0
    1.5015   -7.7085  -15.9668 O   0  0  0  0  0  0  0  0  0  0  0  0
    0.0326   -6.7493  -14.4944 N   0  0  0  0  0  0  0  0  0  0  0  0
    1.7657   -7.0469  -18.2549 F   0  0  0  0  0  0  0  0  0  0  0  0
   -1.0180   -3.4807  -19.7149 O   0  0  0  0  0  0  0  0  0  0  0  0
   -0.6966   -3.1840  -20.9971 C   0  0  0  0  0  0  0  0  0  0  0  0
   -1.3837   -2.0022  -21.6342 C   0  0  0  0  0  0  0  0  0  0  0  0
   -2.4808   -2.3267  -22.6628 C   0  0  0  0  0  0  0  0  0  0  0  0
   -2.8154   -1.7971  -21.3364 C   0  0  0  0  0  0  0  0  0  0  0  0
  1  2  1  0
  2  3  1  0
  3  4  1  0
  4  5  1  0
  5  6  1  0
  6  7  1  0
  5  8  1  0
  8  9  1  0
  9 10  1  0
 10 11  2  0
 11 12  1  0
 12 13  2  0
 13 14  1  0
 14 15  2  0
 15 16  1  0
 16 17  2  0
 17 18  1  0
 18 19  2  0
 18 20  1  0
 16 21  1  0
 14 22  1  0
 22 23  1  0
 23 24  1  0
 24 25  1  0
 25 26  1  0
  7  2  1  0
 20 10  1  0
 17 12  1  0
 26 24  1  0
M  END
$$$$
