
     RDKit          3D

 26 29  0  0  0  0  0  0  0  0999 V2000
   -3.3544   -9.3171   -8.7691 O   0  0  0  0  0  0  0  0  0  0  0  0
   -3.1952   -8.6969  -10.0333 C   0  0  0  0  0  0  0  0  0  0  0  0
   -3.5753   -9.7073  -11.0542 C   0  0  0  0  0  0  0  0  0  0  0  0
   -4.2212   -9.1910  -12.2901 C   0  0  0  0  0  0  0  0  0  0  0  0
   -3.8716   -7.7406  -12.4765 C   0  0  0  0  0  0  0  0  0  0  0  0
   -4.5024   -6.9805  -11.3306 C   0  0  0  0  0  0  0  0  0  0  0  0
   -4.0063   -7.4519   -9.9947 C   0  0  0  0  0  0  0  0  0  0  0  0
   -2.0829   -7.4870  -12.4144 S   0  0  0  0  0  0  0  0  0  0  0  0
   -1.6332   -5.7911  -12.8400 C   0  0  0  0  0  0  0  0  0  0  0  0
   -1.0168   -5.8101  -14.1999 C   0  0  0  0  0  0  0  0  0  0  0  0
   -1.3889   -4.9485  -15.1620 N   0  0  0  0  0  0  0  0  0  0  0  0
   -0.8307   -4.9618  -16.3963 C   0  0  0  0  0  0  0  0  0  0  0  0
   -1.2148   -4.0787  -17.3782 C   0  0  0  0  0  0  0  0  0  0  0  0
   -0.6362   -4.0898  -18.6647 C   0  0  0  0  0  0  0  0  0  0  0  0
    0.3395   -5.0140  -18.9350 C   0  0  0  0  0  0  0  0  0  0  0  0
    0.7457   -5.9202  -17.9548 C   0  0  0  0  0  0  0  0  0  0  0  0
    0.1541   -5.8760  -16.7093 C   0  0  0  0  0  0  0  0  0  0  0  0
    0.5285   -6.7558  -15.7141 C   0  0  0  0  0  0  0  0  0  0  0  0
    1.4288   -7.5926  -15.9986 O   0  0  0  0  0  0  0  0  0  0  0  0
   -0.0579   -6.7019  -14.5013 N   0  0  0  0  0  0  0  0  0  0  0  0
    1.7181   -6.8284  -18.2515 F   0  0  0  0  0  0  0  0  0  0  0  0
   -1.0532   -3.2020  -19.5808 O   0  0  0  0  0  0  0  0  0  0  0  0
   -0.6232   -2.7334  -20.7769 C   0  0  0  0  0  0  0  0  0  0  0  0
   -1.4169   -1.6232  -21.4188 C   0  0  0  0  0  0  0  0  0  0  0  0
   -1.3762   -1.5586  -22.9555 C   0  0  0  0  0  0  0  0  0  0  0  0
   -2.5813   -1.9999  -22.2452 C   0  0  0  0  0  0  0  0  0  0  0  0
  1  2  1  0
  2  3  1  0
  3  4  1  0
  4  5  1  0
  5  6  1  0
  6  7  1  0
  5  8  1  0
  8  9  1  0
  9 10  1  0
 10 11  2  0
 11 12  1  0
 12 13  2  0
 13 14  1  0
 14 15  2  0
 15 16  1  0
 16 17  2  0
 17 18  1  0
 18 19  2  0
 18 20  1  0
 16 21  1  0
 14 22  1  0
 22 23  1  0
 23 24  1  0
 24 25  1  0
 25 26  1  0
  7  2  1  0
 20 10  1  0
 17 12  1  0
 26 24  1  0
M  END
$$$$
