
     RDKit          3D

 26 29  0  0  0  0  0  0  0  0999 V2000
   -3.3272   -9.2452   -8.7322 O   0  0  0  0  0  0  0  0  0  0  0  0
   -3.2100   -8.5593   -9.9667 C   0  0  0  0  0  0  0  0  0  0  0  0
   -3.8529   -9.4190  -10.9941 C   0  0  0  0  0  0  0  0  0  0  0  0
   -4.5393   -8.7172  -12.1110 C   0  0  0  0  0  0  0  0  0  0  0  0
   -3.9878   -7.3254  -12.2501 C   0  0  0  0  0  0  0  0  0  0  0  0
   -4.3632   -6.5709  -10.9937 C   0  0  0  0  0  0  0  0  0  0  0  0
   -3.8059   -7.2138   -9.7571 C   0  0  0  0  0  0  0  0  0  0  0  0
   -2.1855   -7.3479  -12.3861 S   0  0  0  0  0  0  0  0  0  0  0  0
   -1.5220   -5.7081  -12.7476 C   0  0  0  0  0  0  0  0  0  0  0  0
   -0.9093   -5.7536  -14.1084 C   0  0  0  0  0  0  0  0  0  0  0  0
   -1.3014   -4.9275  -15.0935 N   0  0  0  0  0  0  0  0  0  0  0  0
   -0.7466   -4.9648  -16.3287 C   0  0  0  0  0  0  0  0  0  0  0  0
   -1.1512   -4.1181  -17.3341 C   0  0  0  0  0  0  0  0  0  0  0  0
   -0.5763   -4.1544  -18.6218 C   0  0  0  0  0  0  0  0  0  0  0  0
    0.4171   -5.0661  -18.8690 C   0  0  0  0  0  0  0  0  0  0  0  0
    0.8442   -5.9357  -17.8648 C   0  0  0  0  0  0  0  0  0  0  0  0
    0.2555   -5.8677  -16.6190 C   0  0  0  0  0  0  0  0  0  0  0  0
    0.6503   -6.7111  -15.6004 C   0  0  0  0  0  0  0  0  0  0  0  0
    1.5665   -7.5375  -15.8641 O   0  0  0  0  0  0  0  0  0  0  0  0
    0.0665   -6.6343  -14.3876 N   0  0  0  0  0  0  0  0  0  0  0  0
    1.8339   -6.8323  -18.1388 F   0  0  0  0  0  0  0  0  0  0  0  0
   -1.0137   -3.3015  -19.5614 O   0  0  0  0  0  0  0  0  0  0  0  0
   -0.6849   -2.9721  -20.8336 C   0  0  0  0  0  0  0  0  0  0  0  0
   -1.4708   -1.8678  -21.4949 C   0  0  0  0  0  0  0  0  0  0  0  0
   -1.5214   -1.8956  -23.0323 C   0  0  0  0  0  0  0  0  0  0  0  0
   -2.6978   -2.2408  -22.2270 C   0  0  0  0  0  0  0  0  0  0  0  0
  1  2  1  0
  2  3  1  0
  3  4  1  0
  4  5  1  0
  5  6  1  0
  6  7  1  0
  5  8  1  0
  8  9  1  0
  9 10  1  0
 10 11  2  0
 11 12  1  0
 12 13  2  0
 13 14  1  0
 14 15  2  0
 15 16  1  0
 16 17  2  0
 17 18  1  0
 18 19  2  0
 18 20  1  0
 16 21  1  0
 14 22  1  0
 22 23  1  0
 23 24  1  0
 24 25  1  0
 25 26  1  0
  7  2  1  0
 20 10  1  0
 17 12  1  0
 26 24  1  0
M  END
$$$$
