
     RDKit          3D

 26 29  0  0  0  0  0  0  0  0999 V2000
   -0.2883   -1.5261  -24.2438 O   0  0  0  0  0  0  0  0  0  0  0  0
   -0.2602   -2.3472  -23.0891 C   0  0  0  0  0  0  0  0  0  0  0  0
   -1.3849   -1.9047  -22.2246 C   0  0  0  0  0  0  0  0  0  0  0  0
   -2.0540   -2.9580  -21.4160 C   0  0  0  0  0  0  0  0  0  0  0  0
   -1.1253   -4.1271  -21.2383 C   0  0  0  0  0  0  0  0  0  0  0  0
   -0.9058   -4.7324  -22.6073 C   0  0  0  0  0  0  0  0  0  0  0  0
   -0.3050   -3.7521  -23.5723 C   0  0  0  0  0  0  0  0  0  0  0  0
    0.4744   -3.5965  -20.5850 S   0  0  0  0  0  0  0  0  0  0  0  0
    1.4728   -4.9990  -20.0414 C   0  0  0  0  0  0  0  0  0  0  0  0
    1.0416   -5.3569  -18.6574 C   0  0  0  0  0  0  0  0  0  0  0  0
    0.1485   -4.6183  -17.9768 N   0  0  0  0  0  0  0  0  0  0  0  0
   -0.2462   -4.9410  -16.7218 C   0  0  0  0  0  0  0  0  0  0  0  0
   -1.1600   -4.1821  -16.0285 C   0  0  0  0  0  0  0  0  0  0  0  0
   -1.5730   -4.5146  -14.7213 C   0  0  0  0  0  0  0  0  0  0  0  0
   -1.0411   -5.6320  -14.1318 C   0  0  0  0  0  0  0  0  0  0  0  0
   -0.1122   -6.4175  -14.8153 C   0  0  0  0  0  0  0  0  0  0  0  0
    0.2653   -6.0572  -16.0923 C   0  0  0  0  0  0  0  0  0  0  0  0
    1.1815   -6.8083  -16.8002 C   0  0  0  0  0  0  0  0  0  0  0  0
    1.6504   -7.8292  -16.2261 O   0  0  0  0  0  0  0  0  0  0  0  0
    1.5419   -6.4448  -18.0474 N   0  0  0  0  0  0  0  0  0  0  0  0
    0.4005   -7.5232  -14.2045 F   0  0  0  0  0  0  0  0  0  0  0  0
   -2.4687   -3.7345  -14.0964 O   0  0  0  0  0  0  0  0  0  0  0  0
   -2.9741   -3.6084  -12.8458 C   0  0  0  0  0  0  0  0  0  0  0  0
   -3.8457   -2.4109  -12.5617 C   0  0  0  0  0  0  0  0  0  0  0  0
   -3.2909   -1.3898  -11.5535 C   0  0  0  0  0  0  0  0  0  0  0  0
   -3.3526   -1.0856  -12.9871 C   0  0  0  0  0  0  0  0  0  0  0  0
  1  2  1  0
  2  3  1  0
  3  4  1  0
  4  5  1  0
  5  6  1  0
  6  7  1  0
  5  8  1  0
  8  9  1  0
  9 10  1  0
 10 11  2  0
 11 12  1  0
 12 13  2  0
 13 14  1  0
 14 15  2  0
 15 16  1  0
 16 17  2  0
 17 18  1  0
 18 19  2  0
 18 20  1  0
 16 21  1  0
 14 22  1  0
 22 23  1  0
 23 24  1  0
 24 25  1  0
 25 26  1  0
  7  2  1  0
 20 10  1  0
 17 12  1  0
 26 24  1  0
M  END
$$$$
