
     RDKit          3D

 26 29  0  0  0  0  0  0  0  0999 V2000
   -3.1929   -9.5904   -8.8907 O   0  0  0  0  0  0  0  0  0  0  0  0
   -3.0942   -8.8119  -10.0706 C   0  0  0  0  0  0  0  0  0  0  0  0
   -3.6798   -9.6253  -11.1676 C   0  0  0  0  0  0  0  0  0  0  0  0
   -4.3859   -8.8789  -12.2425 C   0  0  0  0  0  0  0  0  0  0  0  0
   -3.9031   -7.4553  -12.2722 C   0  0  0  0  0  0  0  0  0  0  0  0
   -4.3320   -6.8132  -10.9712 C   0  0  0  0  0  0  0  0  0  0  0  0
   -3.7594   -7.5159   -9.7749 C   0  0  0  0  0  0  0  0  0  0  0  0
   -2.1003   -7.3795  -12.3796 S   0  0  0  0  0  0  0  0  0  0  0  0
   -1.5227   -5.7108  -12.7556 C   0  0  0  0  0  0  0  0  0  0  0  0
   -0.9130   -5.7352  -14.1183 C   0  0  0  0  0  0  0  0  0  0  0  0
   -1.2920   -4.8796  -15.0831 N   0  0  0  0  0  0  0  0  0  0  0  0
   -0.7398   -4.8978  -16.3199 C   0  0  0  0  0  0  0  0  0  0  0  0
   -1.1311   -4.0208  -17.3045 C   0  0  0  0  0  0  0  0  0  0  0  0
   -0.5588   -4.0371  -18.5938 C   0  0  0  0  0  0  0  0  0  0  0  0
    0.4180   -4.9600  -18.8641 C   0  0  0  0  0  0  0  0  0  0  0  0
    0.8313   -5.8602  -17.8813 C   0  0  0  0  0  0  0  0  0  0  0  0
    0.2458   -5.8110  -16.6332 C   0  0  0  0  0  0  0  0  0  0  0  0
    0.6273   -6.6848  -15.6353 C   0  0  0  0  0  0  0  0  0  0  0  0
    1.5284   -7.5207  -15.9199 O   0  0  0  0  0  0  0  0  0  0  0  0
    0.0468   -6.6261  -14.4199 N   0  0  0  0  0  0  0  0  0  0  0  0
    1.8047   -6.7674  -18.1781 F   0  0  0  0  0  0  0  0  0  0  0  0
   -0.9826   -3.1550  -19.5124 O   0  0  0  0  0  0  0  0  0  0  0  0
   -0.6611   -2.8133  -20.7832 C   0  0  0  0  0  0  0  0  0  0  0  0
   -1.4279   -1.6800  -21.4175 C   0  0  0  0  0  0  0  0  0  0  0  0
   -1.2745   -1.5235  -22.9403 C   0  0  0  0  0  0  0  0  0  0  0  0
   -2.5197   -2.0259  -22.3496 C   0  0  0  0  0  0  0  0  0  0  0  0
  1  2  1  0
  2  3  1  0
  3  4  1  0
  4  5  1  0
  5  6  1  0
  6  7  1  0
  5  8  1  0
  8  9  1  0
  9 10  1  0
 10 11  2  0
 11 12  1  0
 12 13  2  0
 13 14  1  0
 14 15  2  0
 15 16  1  0
 16 17  2  0
 17 18  1  0
 18 19  2  0
 18 20  1  0
 16 21  1  0
 14 22  1  0
 22 23  1  0
 23 24  1  0
 24 25  1  0
 25 26  1  0
  7  2  1  0
 20 10  1  0
 17 12  1  0
 26 24  1  0
M  END
$$$$
