
     RDKit          3D

 26 29  0  0  0  0  0  0  0  0999 V2000
   -3.4075   -8.9376   -8.5976 O   0  0  0  0  0  0  0  0  0  0  0  0
   -3.2236   -8.4202   -9.9040 C   0  0  0  0  0  0  0  0  0  0  0  0
   -3.4051   -9.5582  -10.8420 C   0  0  0  0  0  0  0  0  0  0  0  0
   -4.0087   -9.2391  -12.1629 C   0  0  0  0  0  0  0  0  0  0  0  0
   -3.8150   -7.7799  -12.4694 C   0  0  0  0  0  0  0  0  0  0  0  0
   -4.6155   -7.0012  -11.4489 C   0  0  0  0  0  0  0  0  0  0  0  0
   -4.1730   -7.2851  -10.0430 C   0  0  0  0  0  0  0  0  0  0  0  0
   -2.0775   -7.3057  -12.3153 S   0  0  0  0  0  0  0  0  0  0  0  0
   -1.7784   -5.6451  -12.9577 C   0  0  0  0  0  0  0  0  0  0  0  0
   -1.0925   -5.7828  -14.2768 C   0  0  0  0  0  0  0  0  0  0  0  0
   -1.4323   -5.0308  -15.3377 N   0  0  0  0  0  0  0  0  0  0  0  0
   -0.8110   -5.1518  -16.5353 C   0  0  0  0  0  0  0  0  0  0  0  0
   -1.1623   -4.3806  -17.6186 C   0  0  0  0  0  0  0  0  0  0  0  0
   -0.5181   -4.5042  -18.8674 C   0  0  0  0  0  0  0  0  0  0  0  0
    0.4894   -5.4250  -18.9953 C   0  0  0  0  0  0  0  0  0  0  0  0
    0.8632   -6.2189  -17.9104 C   0  0  0  0  0  0  0  0  0  0  0  0
    0.2074   -6.0667  -16.7063 C   0  0  0  0  0  0  0  0  0  0  0  0
    0.5482   -6.8336  -15.6107 C   0  0  0  0  0  0  0  0  0  0  0  0
    1.4792   -7.6710  -15.7651 O   0  0  0  0  0  0  0  0  0  0  0  0
   -0.1009   -6.6750  -14.4397 N   0  0  0  0  0  0  0  0  0  0  0  0
    1.8684   -7.1265  -18.0663 F   0  0  0  0  0  0  0  0  0  0  0  0
   -0.9056   -3.7226  -19.8874 O   0  0  0  0  0  0  0  0  0  0  0  0
   -0.3256   -3.1229  -20.9547 C   0  0  0  0  0  0  0  0  0  0  0  0
   -1.2303   -2.4409  -21.9502 C   0  0  0  0  0  0  0  0  0  0  0  0
   -1.4226   -0.9254  -21.7676 C   0  0  0  0  0  0  0  0  0  0  0  0
   -0.6221   -1.4620  -22.8734 C   0  0  0  0  0  0  0  0  0  0  0  0
  1  2  1  0
  2  3  1  0
  3  4  1  0
  4  5  1  0
  5  6  1  0
  6  7  1  0
  5  8  1  0
  8  9  1  0
  9 10  1  0
 10 11  2  0
 11 12  1  0
 12 13  2  0
 13 14  1  0
 14 15  2  0
 15 16  1  0
 16 17  2  0
 17 18  1  0
 18 19  2  0
 18 20  1  0
 16 21  1  0
 14 22  1  0
 22 23  1  0
 23 24  1  0
 24 25  1  0
 25 26  1  0
  7  2  1  0
 20 10  1  0
 17 12  1  0
 26 24  1  0
M  END
$$$$
