
     RDKit          3D

 26 29  0  0  0  0  0  0  0  0999 V2000
   -0.2135   -1.5194   -9.5996 O   0  0  0  0  0  0  0  0  0  0  0  0
   -0.7063   -2.7148  -10.1794 C   0  0  0  0  0  0  0  0  0  0  0  0
   -0.2019   -3.8337   -9.3419 C   0  0  0  0  0  0  0  0  0  0  0  0
   -1.0909   -5.0186   -9.2127 C   0  0  0  0  0  0  0  0  0  0  0  0
   -2.0536   -5.0582  -10.3670 C   0  0  0  0  0  0  0  0  0  0  0  0
   -2.9533   -3.8488  -10.2371 C   0  0  0  0  0  0  0  0  0  0  0  0
   -2.1822   -2.5613  -10.2663 C   0  0  0  0  0  0  0  0  0  0  0  0
   -1.1823   -4.9550  -11.9474 S   0  0  0  0  0  0  0  0  0  0  0  0
   -2.2517   -5.4052  -13.3307 C   0  0  0  0  0  0  0  0  0  0  0  0
   -1.4042   -5.4775  -14.5579 C   0  0  0  0  0  0  0  0  0  0  0  0
   -1.6568   -4.7252  -15.6426 N   0  0  0  0  0  0  0  0  0  0  0  0
   -0.8891   -4.7870  -16.7570 C   0  0  0  0  0  0  0  0  0  0  0  0
   -1.1515   -4.0159  -17.8652 C   0  0  0  0  0  0  0  0  0  0  0  0
   -0.3546   -4.0779  -19.0276 C   0  0  0  0  0  0  0  0  0  0  0  0
    0.7133   -4.9372  -19.0433 C   0  0  0  0  0  0  0  0  0  0  0  0
    0.9992   -5.7298  -17.9310 C   0  0  0  0  0  0  0  0  0  0  0  0
    0.1947   -5.6390  -16.8141 C   0  0  0  0  0  0  0  0  0  0  0  0
    0.4449   -6.4067  -15.6948 C   0  0  0  0  0  0  0  0  0  0  0  0
    1.4355   -7.1865  -15.7452 O   0  0  0  0  0  0  0  0  0  0  0  0
   -0.3494   -6.3084  -14.6099 N   0  0  0  0  0  0  0  0  0  0  0  0
    2.0675   -6.5754  -17.9746 F   0  0  0  0  0  0  0  0  0  0  0  0
   -0.6613   -3.2996  -20.0772 O   0  0  0  0  0  0  0  0  0  0  0  0
   -0.0802   -2.9332  -21.2448 C   0  0  0  0  0  0  0  0  0  0  0  0
   -0.7723   -1.8761  -22.0683 C   0  0  0  0  0  0  0  0  0  0  0  0
   -1.1343   -2.2672  -23.5116 C   0  0  0  0  0  0  0  0  0  0  0  0
   -2.1676   -2.1296  -22.4796 C   0  0  0  0  0  0  0  0  0  0  0  0
  1  2  1  0
  2  3  1  0
  3  4  1  0
  4  5  1  0
  5  6  1  0
  6  7  1  0
  5  8  1  0
  8  9  1  0
  9 10  1  0
 10 11  2  0
 11 12  1  0
 12 13  2  0
 13 14  1  0
 14 15  2  0
 15 16  1  0
 16 17  2  0
 17 18  1  0
 18 19  2  0
 18 20  1  0
 16 21  1  0
 14 22  1  0
 22 23  1  0
 23 24  1  0
 24 25  1  0
 25 26  1  0
  7  2  1  0
 20 10  1  0
 17 12  1  0
 26 24  1  0
M  END
$$$$
