
     RDKit          3D

 26 29  0  0  0  0  0  0  0  0999 V2000
   -2.5447   -3.1327   -8.2904 O   0  0  0  0  0  0  0  0  0  0  0  0
   -2.2440   -3.5372   -9.6149 C   0  0  0  0  0  0  0  0  0  0  0  0
   -2.0156   -2.2951  -10.3978 C   0  0  0  0  0  0  0  0  0  0  0  0
   -1.0081   -2.3745  -11.4885 C   0  0  0  0  0  0  0  0  0  0  0  0
   -0.8291   -3.8067  -11.9098 C   0  0  0  0  0  0  0  0  0  0  0  0
   -0.2262   -4.5438  -10.7343 C   0  0  0  0  0  0  0  0  0  0  0  0
   -1.1002   -4.4812   -9.5156 C   0  0  0  0  0  0  0  0  0  0  0  0
   -2.4166   -4.5724  -12.3110 S   0  0  0  0  0  0  0  0  0  0  0  0
   -2.2053   -6.2287  -12.9976 C   0  0  0  0  0  0  0  0  0  0  0  0
   -1.4204   -6.1020  -14.2615 C   0  0  0  0  0  0  0  0  0  0  0  0
   -1.7282   -5.1930  -15.2024 N   0  0  0  0  0  0  0  0  0  0  0  0
   -1.0173   -5.0741  -16.3494 C   0  0  0  0  0  0  0  0  0  0  0  0
   -1.3361   -4.1428  -17.3099 C   0  0  0  0  0  0  0  0  0  0  0  0
   -0.5985   -4.0164  -18.5057 C   0  0  0  0  0  0  0  0  0  0  0  0
    0.4685   -4.8530  -18.7075 C   0  0  0  0  0  0  0  0  0  0  0  0
    0.8110   -5.8059  -17.7474 C   0  0  0  0  0  0  0  0  0  0  0  0
    0.0634   -5.8969  -16.5915 C   0  0  0  0  0  0  0  0  0  0  0  0
    0.3706   -6.8266  -15.6190 C   0  0  0  0  0  0  0  0  0  0  0  0
    1.3585   -7.5800  -15.8387 O   0  0  0  0  0  0  0  0  0  0  0  0
   -0.3683   -6.9051  -14.4940 N   0  0  0  0  0  0  0  0  0  0  0  0
    1.8769   -6.6248  -17.9745 F   0  0  0  0  0  0  0  0  0  0  0  0
   -0.9585   -3.0876  -19.4052 O   0  0  0  0  0  0  0  0  0  0  0  0
   -0.4747   -2.5935  -20.5701 C   0  0  0  0  0  0  0  0  0  0  0  0
   -1.3175   -1.5800  -21.3030 C   0  0  0  0  0  0  0  0  0  0  0  0
   -1.4053   -1.7453  -22.8301 C   0  0  0  0  0  0  0  0  0  0  0  0
   -2.5476   -2.0589  -21.9648 C   0  0  0  0  0  0  0  0  0  0  0  0
  1  2  1  0
  2  3  1  0
  3  4  1  0
  4  5  1  0
  5  6  1  0
  6  7  1  0
  5  8  1  0
  8  9  1  0
  9 10  1  0
 10 11  2  0
 11 12  1  0
 12 13  2  0
 13 14  1  0
 14 15  2  0
 15 16  1  0
 16 17  2  0
 17 18  1  0
 18 19  2  0
 18 20  1  0
 16 21  1  0
 14 22  1  0
 22 23  1  0
 23 24  1  0
 24 25  1  0
 25 26  1  0
  7  2  1  0
 20 10  1  0
 17 12  1  0
 26 24  1  0
M  END
$$$$
