
     RDKit          3D

 26 29  0  0  0  0  0  0  0  0999 V2000
   -2.5469   -3.1697   -8.2094 O   0  0  0  0  0  0  0  0  0  0  0  0
   -2.2174   -3.5272   -9.5405 C   0  0  0  0  0  0  0  0  0  0  0  0
   -1.8342   -2.2714  -10.2361 C   0  0  0  0  0  0  0  0  0  0  0  0
   -0.7837   -2.3866  -11.2822 C   0  0  0  0  0  0  0  0  0  0  0  0
   -0.7176   -3.8038  -11.7800 C   0  0  0  0  0  0  0  0  0  0  0  0
   -0.2474   -4.6595  -10.6243 C   0  0  0  0  0  0  0  0  0  0  0  0
   -1.1733   -4.5808   -9.4456 C   0  0  0  0  0  0  0  0  0  0  0  0
   -2.3469   -4.3900  -12.2990 S   0  0  0  0  0  0  0  0  0  0  0  0
   -2.2620   -6.0377  -13.0321 C   0  0  0  0  0  0  0  0  0  0  0  0
   -1.4519   -5.9397  -14.2825 C   0  0  0  0  0  0  0  0  0  0  0  0
   -1.7634   -5.0791  -15.2668 N   0  0  0  0  0  0  0  0  0  0  0  0
   -1.0297   -4.9862  -16.4017 C   0  0  0  0  0  0  0  0  0  0  0  0
   -1.3523   -4.1046  -17.4068 C   0  0  0  0  0  0  0  0  0  0  0  0
   -0.5911   -4.0055  -18.5903 C   0  0  0  0  0  0  0  0  0  0  0  0
    0.5037   -4.8180  -18.7337 C   0  0  0  0  0  0  0  0  0  0  0  0
    0.8506   -5.7205  -17.7276 C   0  0  0  0  0  0  0  0  0  0  0  0
    0.0793   -5.7862  -16.5858 C   0  0  0  0  0  0  0  0  0  0  0  0
    0.3900   -6.6662  -15.5690 C   0  0  0  0  0  0  0  0  0  0  0  0
    1.4037   -7.3986  -15.7355 O   0  0  0  0  0  0  0  0  0  0  0  0
   -0.3724   -6.7204  -14.4584 N   0  0  0  0  0  0  0  0  0  0  0  0
    1.9444   -6.5163  -17.8971 F   0  0  0  0  0  0  0  0  0  0  0  0
   -0.9563   -3.1250  -19.5351 O   0  0  0  0  0  0  0  0  0  0  0  0
   -0.4782   -2.6915  -20.7263 C   0  0  0  0  0  0  0  0  0  0  0  0
   -1.3168   -1.7038  -21.4982 C   0  0  0  0  0  0  0  0  0  0  0  0
   -0.7666   -1.2684  -22.8674 C   0  0  0  0  0  0  0  0  0  0  0  0
   -1.9262   -2.1606  -22.7633 C   0  0  0  0  0  0  0  0  0  0  0  0
  1  2  1  0
  2  3  1  0
  3  4  1  0
  4  5  1  0
  5  6  1  0
  6  7  1  0
  5  8  1  0
  8  9  1  0
  9 10  1  0
 10 11  2  0
 11 12  1  0
 12 13  2  0
 13 14  1  0
 14 15  2  0
 15 16  1  0
 16 17  2  0
 17 18  1  0
 18 19  2  0
 18 20  1  0
 16 21  1  0
 14 22  1  0
 22 23  1  0
 23 24  1  0
 24 25  1  0
 25 26  1  0
  7  2  1  0
 20 10  1  0
 17 12  1  0
 26 24  1  0
M  END
$$$$
