
     RDKit          3D

 26 29  0  0  0  0  0  0  0  0999 V2000
    0.1972   -1.9300   -9.5587 O   0  0  0  0  0  0  0  0  0  0  0  0
   -0.6146   -2.8260  -10.2978 C   0  0  0  0  0  0  0  0  0  0  0  0
   -0.6833   -4.0853   -9.5121 C   0  0  0  0  0  0  0  0  0  0  0  0
   -1.9557   -4.8503   -9.5951 C   0  0  0  0  0  0  0  0  0  0  0  0
   -2.6907   -4.4765  -10.8523 C   0  0  0  0  0  0  0  0  0  0  0  0
   -3.0888   -3.0231  -10.7190 C   0  0  0  0  0  0  0  0  0  0  0  0
   -1.9011   -2.1226  -10.5415 C   0  0  0  0  0  0  0  0  0  0  0  0
   -1.6281   -4.6469  -12.3048 S   0  0  0  0  0  0  0  0  0  0  0  0
   -1.9580   -6.1808  -13.1980 C   0  0  0  0  0  0  0  0  0  0  0  0
   -1.1831   -6.1418  -14.4736 C   0  0  0  0  0  0  0  0  0  0  0  0
   -1.5460   -5.3578  -15.5032 N   0  0  0  0  0  0  0  0  0  0  0  0
   -0.8444   -5.3186  -16.6613 C   0  0  0  0  0  0  0  0  0  0  0  0
   -1.2197   -4.5153  -17.7127 C   0  0  0  0  0  0  0  0  0  0  0  0
   -0.4919   -4.4723  -18.9204 C   0  0  0  0  0  0  0  0  0  0  0  0
    0.6238   -5.2597  -19.0401 C   0  0  0  0  0  0  0  0  0  0  0  0
    1.0240   -6.0830  -17.9870 C   0  0  0  0  0  0  0  0  0  0  0  0
    0.2841   -6.0958  -16.8227 C   0  0  0  0  0  0  0  0  0  0  0  0
    0.6477   -6.8970  -15.7594 C   0  0  0  0  0  0  0  0  0  0  0  0
    1.6793   -7.6085  -15.9052 O   0  0  0  0  0  0  0  0  0  0  0  0
   -0.0844   -6.9001  -14.6273 N   0  0  0  0  0  0  0  0  0  0  0  0
    2.1376   -6.8556  -18.1337 F   0  0  0  0  0  0  0  0  0  0  0  0
   -0.9082   -3.6674  -19.9106 O   0  0  0  0  0  0  0  0  0  0  0  0
   -0.3572   -3.0370  -20.9756 C   0  0  0  0  0  0  0  0  0  0  0  0
   -1.2890   -2.3330  -21.9298 C   0  0  0  0  0  0  0  0  0  0  0  0
   -1.7047   -0.9029  -21.5437 C   0  0  0  0  0  0  0  0  0  0  0  0
   -0.7722   -1.1511  -22.6485 C   0  0  0  0  0  0  0  0  0  0  0  0
  1  2  1  0
  2  3  1  0
  3  4  1  0
  4  5  1  0
  5  6  1  0
  6  7  1  0
  5  8  1  0
  8  9  1  0
  9 10  1  0
 10 11  2  0
 11 12  1  0
 12 13  2  0
 13 14  1  0
 14 15  2  0
 15 16  1  0
 16 17  2  0
 17 18  1  0
 18 19  2  0
 18 20  1  0
 16 21  1  0
 14 22  1  0
 22 23  1  0
 23 24  1  0
 24 25  1  0
 25 26  1  0
  7  2  1  0
 20 10  1  0
 17 12  1  0
 26 24  1  0
M  END
$$$$
