
     RDKit          3D

 26 29  0  0  0  0  0  0  0  0999 V2000
   -3.4983   -9.5756   -9.0182 O   0  0  0  0  0  0  0  0  0  0  0  0
   -3.3274   -8.8003  -10.1920 C   0  0  0  0  0  0  0  0  0  0  0  0
   -3.8966   -9.5931  -11.3125 C   0  0  0  0  0  0  0  0  0  0  0  0
   -4.5346   -8.8230  -12.4129 C   0  0  0  0  0  0  0  0  0  0  0  0
   -4.0035   -7.4164  -12.4212 C   0  0  0  0  0  0  0  0  0  0  0  0
   -4.4613   -6.7608  -11.1368 C   0  0  0  0  0  0  0  0  0  0  0  0
   -3.9598   -7.4829   -9.9203 C   0  0  0  0  0  0  0  0  0  0  0  0
   -2.1963   -7.4011  -12.4578 S   0  0  0  0  0  0  0  0  0  0  0  0
   -1.5486   -5.7507  -12.7982 C   0  0  0  0  0  0  0  0  0  0  0  0
   -0.9287   -5.7749  -14.1564 C   0  0  0  0  0  0  0  0  0  0  0  0
   -1.2937   -4.9130  -15.1209 N   0  0  0  0  0  0  0  0  0  0  0  0
   -0.7322   -4.9310  -16.3535 C   0  0  0  0  0  0  0  0  0  0  0  0
   -1.1091   -4.0476  -17.3379 C   0  0  0  0  0  0  0  0  0  0  0  0
   -0.5271   -4.0637  -18.6228 C   0  0  0  0  0  0  0  0  0  0  0  0
    0.4446   -4.9932  -18.8890 C   0  0  0  0  0  0  0  0  0  0  0  0
    0.8434   -5.9001  -17.9063 C   0  0  0  0  0  0  0  0  0  0  0  0
    0.2487   -5.8508  -16.6625 C   0  0  0  0  0  0  0  0  0  0  0  0
    0.6158   -6.7310  -15.6650 C   0  0  0  0  0  0  0  0  0  0  0  0
    1.5125   -7.5729  -15.9457 O   0  0  0  0  0  0  0  0  0  0  0  0
    0.0264   -6.6721  -14.4538 N   0  0  0  0  0  0  0  0  0  0  0  0
    1.8119   -6.8137  -18.1989 F   0  0  0  0  0  0  0  0  0  0  0  0
   -0.9370   -3.1751  -19.5414 O   0  0  0  0  0  0  0  0  0  0  0  0
   -0.5516   -2.7751  -20.7770 C   0  0  0  0  0  0  0  0  0  0  0  0
   -1.3359   -1.6633  -21.4279 C   0  0  0  0  0  0  0  0  0  0  0  0
   -1.3818   -1.6735  -22.9657 C   0  0  0  0  0  0  0  0  0  0  0  0
   -2.5605   -2.0283  -22.1679 C   0  0  0  0  0  0  0  0  0  0  0  0
  1  2  1  0
  2  3  1  0
  3  4  1  0
  4  5  1  0
  5  6  1  0
  6  7  1  0
  5  8  1  0
  8  9  1  0
  9 10  1  0
 10 11  2  0
 11 12  1  0
 12 13  2  0
 13 14  1  0
 14 15  2  0
 15 16  1  0
 16 17  2  0
 17 18  1  0
 18 19  2  0
 18 20  1  0
 16 21  1  0
 14 22  1  0
 22 23  1  0
 23 24  1  0
 24 25  1  0
 25 26  1  0
  7  2  1  0
 20 10  1  0
 17 12  1  0
 26 24  1  0
M  END
$$$$
