
     RDKit          3D

 26 29  0  0  0  0  0  0  0  0999 V2000
   -4.2578   -5.6407   -8.4329 O   0  0  0  0  0  0  0  0  0  0  0  0
   -3.3750   -5.5245   -9.5353 C   0  0  0  0  0  0  0  0  0  0  0  0
   -2.4806   -4.3740   -9.2451 C   0  0  0  0  0  0  0  0  0  0  0  0
   -1.0868   -4.4726   -9.7537 C   0  0  0  0  0  0  0  0  0  0  0  0
   -1.0312   -5.4525  -10.8928 C   0  0  0  0  0  0  0  0  0  0  0  0
   -1.3621   -6.8147  -10.3240 C   0  0  0  0  0  0  0  0  0  0  0  0
   -2.7232   -6.8512   -9.6923 C   0  0  0  0  0  0  0  0  0  0  0  0
   -2.2553   -5.0499  -12.1605 S   0  0  0  0  0  0  0  0  0  0  0  0
   -2.4860   -6.4118  -13.3232 C   0  0  0  0  0  0  0  0  0  0  0  0
   -1.6039   -6.1602  -14.5014 C   0  0  0  0  0  0  0  0  0  0  0  0
   -1.9387   -5.2883  -15.4679 N   0  0  0  0  0  0  0  0  0  0  0  0
   -1.1402   -5.0564  -16.5373 C   0  0  0  0  0  0  0  0  0  0  0  0
   -1.4869   -4.1637  -17.5244 C   0  0  0  0  0  0  0  0  0  0  0  0
   -0.6582   -3.9199  -18.6397 C   0  0  0  0  0  0  0  0  0  0  0  0
    0.5287   -4.5993  -18.7335 C   0  0  0  0  0  0  0  0  0  0  0  0
    0.9018   -5.5102  -17.7444 C   0  0  0  0  0  0  0  0  0  0  0  0
    0.0624   -5.7196  -16.6699 C   0  0  0  0  0  0  0  0  0  0  0  0
    0.3962   -6.6126  -15.6719 C   0  0  0  0  0  0  0  0  0  0  0  0
    1.4955   -7.2202  -15.7915 O   0  0  0  0  0  0  0  0  0  0  0  0
   -0.4334   -6.8080  -14.6273 N   0  0  0  0  0  0  0  0  0  0  0  0
    2.0877   -6.1717  -17.8635 F   0  0  0  0  0  0  0  0  0  0  0  0
   -1.0514   -3.0362  -19.5702 O   0  0  0  0  0  0  0  0  0  0  0  0
   -0.4887   -2.3692  -20.6065 C   0  0  0  0  0  0  0  0  0  0  0  0
   -1.4027   -1.5729  -21.5038 C   0  0  0  0  0  0  0  0  0  0  0  0
   -0.8212   -0.2725  -22.0850 C   0  0  0  0  0  0  0  0  0  0  0  0
   -1.0338   -1.4536  -22.9286 C   0  0  0  0  0  0  0  0  0  0  0  0
  1  2  1  0
  2  3  1  0
  3  4  1  0
  4  5  1  0
  5  6  1  0
  6  7  1  0
  5  8  1  0
  8  9  1  0
  9 10  1  0
 10 11  2  0
 11 12  1  0
 12 13  2  0
 13 14  1  0
 14 15  2  0
 15 16  1  0
 16 17  2  0
 17 18  1  0
 18 19  2  0
 18 20  1  0
 16 21  1  0
 14 22  1  0
 22 23  1  0
 23 24  1  0
 24 25  1  0
 25 26  1  0
  7  2  1  0
 20 10  1  0
 17 12  1  0
 26 24  1  0
M  END
$$$$
