
     RDKit          3D

 26 29  0  0  0  0  0  0  0  0999 V2000
   -3.1538   -9.3710   -8.6673 O   0  0  0  0  0  0  0  0  0  0  0  0
   -3.0725   -8.6851   -9.9047 C   0  0  0  0  0  0  0  0  0  0  0  0
   -3.6711   -9.5808  -10.9281 C   0  0  0  0  0  0  0  0  0  0  0  0
   -4.3930   -8.9197  -12.0474 C   0  0  0  0  0  0  0  0  0  0  0  0
   -3.9135   -7.5021  -12.1927 C   0  0  0  0  0  0  0  0  0  0  0  0
   -4.3262   -6.7626  -10.9391 C   0  0  0  0  0  0  0  0  0  0  0  0
   -3.7362   -7.3710   -9.7003 C   0  0  0  0  0  0  0  0  0  0  0  0
   -2.1124   -7.4331  -12.3299 S   0  0  0  0  0  0  0  0  0  0  0  0
   -1.5366   -5.7722  -12.7415 C   0  0  0  0  0  0  0  0  0  0  0  0
   -0.8988   -5.8315  -14.0903 C   0  0  0  0  0  0  0  0  0  0  0  0
   -1.2576   -5.0013  -15.0844 N   0  0  0  0  0  0  0  0  0  0  0  0
   -0.6800   -5.0512  -16.3087 C   0  0  0  0  0  0  0  0  0  0  0  0
   -1.0506   -4.2002  -17.3235 C   0  0  0  0  0  0  0  0  0  0  0  0
   -0.4518   -4.2495  -18.5998 C   0  0  0  0  0  0  0  0  0  0  0  0
    0.5303   -5.1788  -18.8260 C   0  0  0  0  0  0  0  0  0  0  0  0
    0.9230   -6.0531  -17.8118 C   0  0  0  0  0  0  0  0  0  0  0  0
    0.3118   -5.9719  -16.5778 C   0  0  0  0  0  0  0  0  0  0  0  0
    0.6724   -6.8194  -15.5500 C   0  0  0  0  0  0  0  0  0  0  0  0
    1.5791   -7.6621  -15.7942 O   0  0  0  0  0  0  0  0  0  0  0  0
    0.0668   -6.7296  -14.3488 N   0  0  0  0  0  0  0  0  0  0  0  0
    1.9021   -6.9673  -18.0648 F   0  0  0  0  0  0  0  0  0  0  0  0
   -0.8563   -3.3916  -19.5495 O   0  0  0  0  0  0  0  0  0  0  0  0
   -0.4893   -3.0620  -20.8112 C   0  0  0  0  0  0  0  0  0  0  0  0
   -1.2808   -1.9853  -21.5104 C   0  0  0  0  0  0  0  0  0  0  0  0
   -1.9579   -2.3886  -22.8317 C   0  0  0  0  0  0  0  0  0  0  0  0
   -2.7430   -2.1643  -21.6131 C   0  0  0  0  0  0  0  0  0  0  0  0
  1  2  1  0
  2  3  1  0
  3  4  1  0
  4  5  1  0
  5  6  1  0
  6  7  1  0
  5  8  1  0
  8  9  1  0
  9 10  1  0
 10 11  2  0
 11 12  1  0
 12 13  2  0
 13 14  1  0
 14 15  2  0
 15 16  1  0
 16 17  2  0
 17 18  1  0
 18 19  2  0
 18 20  1  0
 16 21  1  0
 14 22  1  0
 22 23  1  0
 23 24  1  0
 24 25  1  0
 25 26  1  0
  7  2  1  0
 20 10  1  0
 17 12  1  0
 26 24  1  0
M  END
$$$$
