
     RDKit          3D

 26 29  0  0  0  0  0  0  0  0999 V2000
   -3.3882   -8.9049   -8.5845 O   0  0  0  0  0  0  0  0  0  0  0  0
   -3.1966   -8.4022   -9.8955 C   0  0  0  0  0  0  0  0  0  0  0  0
   -3.3523   -9.5548  -10.8203 C   0  0  0  0  0  0  0  0  0  0  0  0
   -3.9453   -9.2613  -12.1520 C   0  0  0  0  0  0  0  0  0  0  0  0
   -3.7678   -7.8038  -12.4757 C   0  0  0  0  0  0  0  0  0  0  0  0
   -4.5901   -7.0227  -11.4745 C   0  0  0  0  0  0  0  0  0  0  0  0
   -4.1596   -7.2821  -10.0601 C   0  0  0  0  0  0  0  0  0  0  0  0
   -2.0386   -7.3040  -12.3087 S   0  0  0  0  0  0  0  0  0  0  0  0
   -1.7623   -5.6336  -12.9357 C   0  0  0  0  0  0  0  0  0  0  0  0
   -1.0812   -5.7499  -14.2593 C   0  0  0  0  0  0  0  0  0  0  0  0
   -1.4413   -4.9979  -15.3135 N   0  0  0  0  0  0  0  0  0  0  0  0
   -0.8246   -5.0995  -16.5153 C   0  0  0  0  0  0  0  0  0  0  0  0
   -1.1966   -4.3285  -17.5917 C   0  0  0  0  0  0  0  0  0  0  0  0
   -0.5572   -4.4319  -18.8449 C   0  0  0  0  0  0  0  0  0  0  0  0
    0.4670   -5.3324  -18.9841 C   0  0  0  0  0  0  0  0  0  0  0  0
    0.8621   -6.1258  -17.9063 C   0  0  0  0  0  0  0  0  0  0  0  0
    0.2102   -5.9937  -16.6977 C   0  0  0  0  0  0  0  0  0  0  0  0
    0.5717   -6.7607  -15.6088 C   0  0  0  0  0  0  0  0  0  0  0  0
    1.5178   -7.5791  -15.7737 O   0  0  0  0  0  0  0  0  0  0  0  0
   -0.0737   -6.6218  -14.4334 N   0  0  0  0  0  0  0  0  0  0  0  0
    1.8835   -7.0129  -18.0735 F   0  0  0  0  0  0  0  0  0  0  0  0
   -0.9654   -3.6515  -19.8577 O   0  0  0  0  0  0  0  0  0  0  0  0
   -0.4189   -3.0972  -20.9664 C   0  0  0  0  0  0  0  0  0  0  0  0
   -1.3291   -2.3091  -21.8748 C   0  0  0  0  0  0  0  0  0  0  0  0
   -1.6115   -0.8549  -21.4594 C   0  0  0  0  0  0  0  0  0  0  0  0
   -0.7482   -1.1642  -22.6044 C   0  0  0  0  0  0  0  0  0  0  0  0
  1  2  1  0
  2  3  1  0
  3  4  1  0
  4  5  1  0
  5  6  1  0
  6  7  1  0
  5  8  1  0
  8  9  1  0
  9 10  1  0
 10 11  2  0
 11 12  1  0
 12 13  2  0
 13 14  1  0
 14 15  2  0
 15 16  1  0
 16 17  2  0
 17 18  1  0
 18 19  2  0
 18 20  1  0
 16 21  1  0
 14 22  1  0
 22 23  1  0
 23 24  1  0
 24 25  1  0
 25 26  1  0
  7  2  1  0
 20 10  1  0
 17 12  1  0
 26 24  1  0
M  END
$$$$
