
     RDKit          3D

 26 29  0  0  0  0  0  0  0  0999 V2000
   -2.2634   -2.0834   -8.4140 O   0  0  0  0  0  0  0  0  0  0  0  0
   -1.9997   -3.0707   -9.3958 C   0  0  0  0  0  0  0  0  0  0  0  0
   -0.5267   -3.2643   -9.4200 C   0  0  0  0  0  0  0  0  0  0  0  0
   -0.0432   -4.6377   -9.7219 C   0  0  0  0  0  0  0  0  0  0  0  0
   -1.1115   -5.4017  -10.4536 C   0  0  0  0  0  0  0  0  0  0  0  0
   -2.2710   -5.5715   -9.4968 C   0  0  0  0  0  0  0  0  0  0  0  0
   -2.8208   -4.2548   -9.0310 C   0  0  0  0  0  0  0  0  0  0  0  0
   -1.6937   -4.4871  -11.9000 S   0  0  0  0  0  0  0  0  0  0  0  0
   -2.4165   -5.5843  -13.1382 C   0  0  0  0  0  0  0  0  0  0  0  0
   -1.5193   -5.5796  -14.3316 C   0  0  0  0  0  0  0  0  0  0  0  0
   -1.7376   -4.7713  -15.3830 N   0  0  0  0  0  0  0  0  0  0  0  0
   -0.9247   -4.7631  -16.4666 C   0  0  0  0  0  0  0  0  0  0  0  0
   -1.1521   -3.9348  -17.5407 C   0  0  0  0  0  0  0  0  0  0  0  0
   -0.3082   -3.9239  -18.6711 C   0  0  0  0  0  0  0  0  0  0  0  0
    0.7707   -4.7695  -18.6899 C   0  0  0  0  0  0  0  0  0  0  0  0
    1.0216   -5.6192  -17.6119 C   0  0  0  0  0  0  0  0  0  0  0  0
    0.1715   -5.5989  -16.5257 C   0  0  0  0  0  0  0  0  0  0  0  0
    0.3862   -6.4246  -15.4408 C   0  0  0  0  0  0  0  0  0  0  0  0
    1.3881   -7.1897  -15.4931 O   0  0  0  0  0  0  0  0  0  0  0  0
   -0.4525   -6.3949  -14.3857 N   0  0  0  0  0  0  0  0  0  0  0  0
    2.1017   -6.4496  -17.6578 F   0  0  0  0  0  0  0  0  0  0  0  0
   -0.5822   -3.0922  -19.6882 O   0  0  0  0  0  0  0  0  0  0  0  0
    0.0243   -2.6857  -20.8293 C   0  0  0  0  0  0  0  0  0  0  0  0
   -0.7141   -1.7007  -21.7005 C   0  0  0  0  0  0  0  0  0  0  0  0
   -0.6510   -1.9532  -23.2169 C   0  0  0  0  0  0  0  0  0  0  0  0
   -1.8825   -2.1935  -22.4571 C   0  0  0  0  0  0  0  0  0  0  0  0
  1  2  1  0
  2  3  1  0
  3  4  1  0
  4  5  1  0
  5  6  1  0
  6  7  1  0
  5  8  1  0
  8  9  1  0
  9 10  1  0
 10 11  2  0
 11 12  1  0
 12 13  2  0
 13 14  1  0
 14 15  2  0
 15 16  1  0
 16 17  2  0
 17 18  1  0
 18 19  2  0
 18 20  1  0
 16 21  1  0
 14 22  1  0
 22 23  1  0
 23 24  1  0
 24 25  1  0
 25 26  1  0
  7  2  1  0
 20 10  1  0
 17 12  1  0
 26 24  1  0
M  END
$$$$
