
     RDKit          3D

 26 29  0  0  0  0  0  0  0  0999 V2000
    0.2991    0.0947  -22.8620 O   0  0  0  0  0  0  0  0  0  0  0  0
    0.1910   -1.1305  -22.1582 C   0  0  0  0  0  0  0  0  0  0  0  0
   -1.0259   -1.0293  -21.3117 C   0  0  0  0  0  0  0  0  0  0  0  0
   -1.7866   -2.2877  -21.0905 C   0  0  0  0  0  0  0  0  0  0  0  0
   -0.8870   -3.4705  -21.3192 C   0  0  0  0  0  0  0  0  0  0  0  0
   -0.5105   -3.4659  -22.7845 C   0  0  0  0  0  0  0  0  0  0  0  0
    0.2004   -2.2058  -23.1844 C   0  0  0  0  0  0  0  0  0  0  0  0
    0.6267   -3.3384  -20.3400 S   0  0  0  0  0  0  0  0  0  0  0  0
    1.3283   -4.9607  -19.9719 C   0  0  0  0  0  0  0  0  0  0  0  0
    0.9073   -5.3370  -18.5896 C   0  0  0  0  0  0  0  0  0  0  0  0
    0.0205   -4.6067  -17.8921 N   0  0  0  0  0  0  0  0  0  0  0  0
   -0.3650   -4.9460  -16.6386 C   0  0  0  0  0  0  0  0  0  0  0  0
   -1.2724   -4.1955  -15.9280 C   0  0  0  0  0  0  0  0  0  0  0  0
   -1.6758   -4.5454  -14.6223 C   0  0  0  0  0  0  0  0  0  0  0  0
   -1.1408   -5.6714  -14.0522 C   0  0  0  0  0  0  0  0  0  0  0  0
   -0.2183   -6.4486  -14.7535 C   0  0  0  0  0  0  0  0  0  0  0  0
    0.1498   -6.0713  -16.0284 C   0  0  0  0  0  0  0  0  0  0  0  0
    1.0596   -6.8137  -16.7535 C   0  0  0  0  0  0  0  0  0  0  0  0
    1.5316   -7.8430  -16.1971 O   0  0  0  0  0  0  0  0  0  0  0  0
    1.4108   -6.4337  -17.9984 N   0  0  0  0  0  0  0  0  0  0  0  0
    0.2976   -7.5631  -14.1619 F   0  0  0  0  0  0  0  0  0  0  0  0
   -2.5657   -3.7728  -13.9799 O   0  0  0  0  0  0  0  0  0  0  0  0
   -2.9269   -3.5310  -12.6968 C   0  0  0  0  0  0  0  0  0  0  0  0
   -3.8200   -2.3445  -12.4340 C   0  0  0  0  0  0  0  0  0  0  0  0
   -3.2006   -1.1938  -11.6219 C   0  0  0  0  0  0  0  0  0  0  0  0
   -3.4552   -1.0578  -13.0601 C   0  0  0  0  0  0  0  0  0  0  0  0
  1  2  1  0
  2  3  1  0
  3  4  1  0
  4  5  1  0
  5  6  1  0
  6  7  1  0
  5  8  1  0
  8  9  1  0
  9 10  1  0
 10 11  2  0
 11 12  1  0
 12 13  2  0
 13 14  1  0
 14 15  2  0
 15 16  1  0
 16 17  2  0
 17 18  1  0
 18 19  2  0
 18 20  1  0
 16 21  1  0
 14 22  1  0
 22 23  1  0
 23 24  1  0
 24 25  1  0
 25 26  1  0
  7  2  1  0
 20 10  1  0
 17 12  1  0
 26 24  1  0
M  END
$$$$
