
     RDKit          3D

 26 29  0  0  0  0  0  0  0  0999 V2000
   -3.3836   -9.0650   -8.5990 O   0  0  0  0  0  0  0  0  0  0  0  0
   -3.2106   -8.5079   -9.8905 C   0  0  0  0  0  0  0  0  0  0  0  0
   -3.4760   -9.5988  -10.8638 C   0  0  0  0  0  0  0  0  0  0  0  0
   -4.0996   -9.1998  -12.1534 C   0  0  0  0  0  0  0  0  0  0  0  0
   -3.8407   -7.7415  -12.4118 C   0  0  0  0  0  0  0  0  0  0  0  0
   -4.5716   -6.9635  -11.3397 C   0  0  0  0  0  0  0  0  0  0  0  0
   -4.1047   -7.3225   -9.9591 C   0  0  0  0  0  0  0  0  0  0  0  0
   -2.0778   -7.3603  -12.2927 S   0  0  0  0  0  0  0  0  0  0  0  0
   -1.7246   -5.6648  -12.8028 C   0  0  0  0  0  0  0  0  0  0  0  0
   -1.0923   -5.7172  -14.1544 C   0  0  0  0  0  0  0  0  0  0  0  0
   -1.4664   -4.8927  -15.1476 N   0  0  0  0  0  0  0  0  0  0  0  0
   -0.8939   -4.9363  -16.3745 C   0  0  0  0  0  0  0  0  0  0  0  0
   -1.2801   -4.0910  -17.3884 C   0  0  0  0  0  0  0  0  0  0  0  0
   -0.6866   -4.1339  -18.6674 C   0  0  0  0  0  0  0  0  0  0  0  0
    0.3063   -5.0507  -18.8972 C   0  0  0  0  0  0  0  0  0  0  0  0
    0.7149   -5.9189  -17.8842 C   0  0  0  0  0  0  0  0  0  0  0  0
    0.1084   -5.8444  -16.6474 C   0  0  0  0  0  0  0  0  0  0  0  0
    0.4847   -6.6862  -15.6205 C   0  0  0  0  0  0  0  0  0  0  0  0
    1.4010   -7.5174  -15.8682 O   0  0  0  0  0  0  0  0  0  0  0  0
   -0.1164   -6.6030  -14.4166 N   0  0  0  0  0  0  0  0  0  0  0  0
    1.7046   -6.8206  -18.1409 F   0  0  0  0  0  0  0  0  0  0  0  0
   -1.1066   -3.2822  -19.6159 O   0  0  0  0  0  0  0  0  0  0  0  0
   -0.7442   -2.9427  -20.8763 C   0  0  0  0  0  0  0  0  0  0  0  0
   -1.5875   -1.9188  -21.5941 C   0  0  0  0  0  0  0  0  0  0  0  0
   -1.0216   -1.3801  -22.9194 C   0  0  0  0  0  0  0  0  0  0  0  0
   -2.1658   -2.2976  -22.8989 C   0  0  0  0  0  0  0  0  0  0  0  0
  1  2  1  0
  2  3  1  0
  3  4  1  0
  4  5  1  0
  5  6  1  0
  6  7  1  0
  5  8  1  0
  8  9  1  0
  9 10  1  0
 10 11  2  0
 11 12  1  0
 12 13  2  0
 13 14  1  0
 14 15  2  0
 15 16  1  0
 16 17  2  0
 17 18  1  0
 18 19  2  0
 18 20  1  0
 16 21  1  0
 14 22  1  0
 22 23  1  0
 23 24  1  0
 24 25  1  0
 25 26  1  0
  7  2  1  0
 20 10  1  0
 17 12  1  0
 26 24  1  0
M  END
$$$$
