
     RDKit          3D

 26 29  0  0  0  0  0  0  0  0999 V2000
   -3.1733  -10.1934   -9.5162 O   0  0  0  0  0  0  0  0  0  0  0  0
   -3.1514   -9.1033  -10.4214 C   0  0  0  0  0  0  0  0  0  0  0  0
   -4.3012   -9.2923  -11.3434 C   0  0  0  0  0  0  0  0  0  0  0  0
   -4.9649   -8.0570  -11.8378 C   0  0  0  0  0  0  0  0  0  0  0  0
   -4.0168   -6.8949  -11.7312 C   0  0  0  0  0  0  0  0  0  0  0  0
   -3.7586   -6.6656  -10.2583 C   0  0  0  0  0  0  0  0  0  0  0  0
   -3.1588   -7.8696   -9.5924 C   0  0  0  0  0  0  0  0  0  0  0  0
   -2.4409   -7.2621  -12.5370 S   0  0  0  0  0  0  0  0  0  0  0  0
   -1.4476   -5.7730  -12.7723 C   0  0  0  0  0  0  0  0  0  0  0  0
   -0.8662   -5.8247  -14.1466 C   0  0  0  0  0  0  0  0  0  0  0  0
   -1.2562   -4.9801  -15.1167 N   0  0  0  0  0  0  0  0  0  0  0  0
   -0.7297   -5.0230  -16.3641 C   0  0  0  0  0  0  0  0  0  0  0  0
   -1.1320   -4.1573  -17.3540 C   0  0  0  0  0  0  0  0  0  0  0  0
   -0.5865   -4.1993  -18.6542 C   0  0  0  0  0  0  0  0  0  0  0  0
    0.3751   -5.1366  -18.9300 C   0  0  0  0  0  0  0  0  0  0  0  0
    0.7993   -6.0258  -17.9419 C   0  0  0  0  0  0  0  0  0  0  0  0
    0.2400   -5.9513  -16.6830 C   0  0  0  0  0  0  0  0  0  0  0  0
    0.6329   -6.8136  -15.6796 C   0  0  0  0  0  0  0  0  0  0  0  0
    1.5195   -7.6632  -15.9694 O   0  0  0  0  0  0  0  0  0  0  0  0
    0.0781   -6.7301  -14.4537 N   0  0  0  0  0  0  0  0  0  0  0  0
    1.7571   -6.9476  -18.2442 F   0  0  0  0  0  0  0  0  0  0  0  0
   -1.0200   -3.3271  -19.5777 O   0  0  0  0  0  0  0  0  0  0  0  0
   -0.6389   -2.9154  -20.8107 C   0  0  0  0  0  0  0  0  0  0  0  0
   -1.5480   -1.9580  -21.5398 C   0  0  0  0  0  0  0  0  0  0  0  0
   -0.8571   -0.8864  -22.4009 C   0  0  0  0  0  0  0  0  0  0  0  0
   -1.5646   -2.0149  -23.0153 C   0  0  0  0  0  0  0  0  0  0  0  0
  1  2  1  0
  2  3  1  0
  3  4  1  0
  4  5  1  0
  5  6  1  0
  6  7  1  0
  5  8  1  0
  8  9  1  0
  9 10  1  0
 10 11  2  0
 11 12  1  0
 12 13  2  0
 13 14  1  0
 14 15  2  0
 15 16  1  0
 16 17  2  0
 17 18  1  0
 18 19  2  0
 18 20  1  0
 16 21  1  0
 14 22  1  0
 22 23  1  0
 23 24  1  0
 24 25  1  0
 25 26  1  0
  7  2  1  0
 20 10  1  0
 17 12  1  0
 26 24  1  0
M  END
$$$$
