
     RDKit          3D

 26 29  0  0  0  0  0  0  0  0999 V2000
   -5.5920   -9.0651   -9.7611 O   0  0  0  0  0  0  0  0  0  0  0  0
   -4.4662   -8.6530  -10.5168 C   0  0  0  0  0  0  0  0  0  0  0  0
   -3.6953   -7.7181   -9.6569 C   0  0  0  0  0  0  0  0  0  0  0  0
   -2.2173   -7.7338   -9.8188 C   0  0  0  0  0  0  0  0  0  0  0  0
   -1.8613   -8.2918  -11.1688 C   0  0  0  0  0  0  0  0  0  0  0  0
   -2.2948   -9.7412  -11.1791 C   0  0  0  0  0  0  0  0  0  0  0  0
   -3.7689   -9.8950  -10.9417 C   0  0  0  0  0  0  0  0  0  0  0  0
   -2.7413   -7.4229  -12.4871 S   0  0  0  0  0  0  0  0  0  0  0  0
   -2.0789   -5.7645  -12.7526 C   0  0  0  0  0  0  0  0  0  0  0  0
   -1.3363   -5.7716  -14.0479 C   0  0  0  0  0  0  0  0  0  0  0  0
   -1.6501   -4.9361  -15.0528 N   0  0  0  0  0  0  0  0  0  0  0  0
   -0.9774   -4.9387  -16.2287 C   0  0  0  0  0  0  0  0  0  0  0  0
   -1.3022   -4.0823  -17.2547 C   0  0  0  0  0  0  0  0  0  0  0  0
   -0.6045   -4.0825  -18.4807 C   0  0  0  0  0  0  0  0  0  0  0  0
    0.4290   -4.9681  -18.6450 C   0  0  0  0  0  0  0  0  0  0  0  0
    0.7767   -5.8468  -17.6183 C   0  0  0  0  0  0  0  0  0  0  0  0
    0.0686   -5.8144  -16.4348 C   0  0  0  0  0  0  0  0  0  0  0  0
    0.3822   -6.6679  -15.3965 C   0  0  0  0  0  0  0  0  0  0  0  0
    1.3384   -7.4695  -15.5832 O   0  0  0  0  0  0  0  0  0  0  0  0
   -0.3180   -6.6260  -14.2452 N   0  0  0  0  0  0  0  0  0  0  0  0
    1.8086   -6.7168  -17.8093 F   0  0  0  0  0  0  0  0  0  0  0  0
   -0.9683   -3.2220  -19.4444 O   0  0  0  0  0  0  0  0  0  0  0  0
   -0.5280   -2.8654  -20.6749 C   0  0  0  0  0  0  0  0  0  0  0  0
   -1.2720   -1.7668  -21.3920 C   0  0  0  0  0  0  0  0  0  0  0  0
   -1.1889   -1.7796  -22.9282 C   0  0  0  0  0  0  0  0  0  0  0  0
   -2.4246   -2.1516  -22.2309 C   0  0  0  0  0  0  0  0  0  0  0  0
  1  2  1  0
  2  3  1  0
  3  4  1  0
  4  5  1  0
  5  6  1  0
  6  7  1  0
  5  8  1  0
  8  9  1  0
  9 10  1  0
 10 11  2  0
 11 12  1  0
 12 13  2  0
 13 14  1  0
 14 15  2  0
 15 16  1  0
 16 17  2  0
 17 18  1  0
 18 19  2  0
 18 20  1  0
 16 21  1  0
 14 22  1  0
 22 23  1  0
 23 24  1  0
 24 25  1  0
 25 26  1  0
  7  2  1  0
 20 10  1  0
 17 12  1  0
 26 24  1  0
M  END
$$$$
