
     RDKit          3D

 26 29  0  0  0  0  0  0  0  0999 V2000
    0.7191  -51.6353  -30.4238 S   0  0  0  0  0  0  0  0  0  0  0  0
   -0.3467  -53.0225  -30.1041 C   0  0  2  0  0  0  0  0  0  0  0  0
   -1.2715  -52.8091  -28.9270 C   0  0  0  0  0  0  0  0  0  0  0  0
   -2.1131  -53.9999  -28.6094 C   0  0  0  0  0  0  0  0  0  0  0  0
   -1.3967  -55.3145  -28.7179 C   0  0  1  0  0  0  0  0  0  0  0  0
   -1.8511  -55.9370  -29.8921 O   0  0  0  0  0  0  0  0  0  0  0  0
    0.0991  -55.1364  -28.8756 C   0  0  0  0  0  0  0  0  0  0  0  0
    0.4145  -54.2960  -30.0877 C   0  0  0  0  0  0  0  0  0  0  0  0
    0.3142  -50.1075  -29.6182 C   0  0  0  0  0  0  0  0  0  0  0  0
    1.4560  -49.3956  -29.0022 C   0  0  0  0  0  0  0  0  0  0  0  0
    2.3821  -50.0591  -28.2896 N   0  0  0  0  0  0  0  0  0  0  0  0
    3.4521  -49.4970  -27.7212 C   0  0  0  0  0  0  0  0  0  0  0  0
    4.3138  -50.1269  -27.0557 O   0  0  0  0  0  0  0  0  0  0  0  0
    3.6506  -48.1327  -27.8578 C   0  0  0  0  0  0  0  0  0  0  0  0
    2.7111  -47.4324  -28.5860 C   0  0  0  0  0  0  0  0  0  0  0  0
    1.6550  -48.0601  -29.1329 N   0  0  0  0  0  0  0  0  0  0  0  0
    2.9204  -46.0783  -28.7150 C   0  0  0  0  0  0  0  0  0  0  0  0
    4.0014  -45.4282  -28.1584 C   0  0  0  0  0  0  0  0  0  0  0  0
    4.1848  -44.0488  -28.3095 O   0  0  0  0  0  0  0  0  0  0  0  0
    5.1065  -43.3398  -27.5048 C   0  0  0  0  0  0  0  0  0  0  0  0
    5.0362  -41.8862  -27.8548 C   0  0  0  0  0  0  0  0  0  0  0  0
    4.1547  -40.9626  -27.1067 C   0  0  0  0  0  0  0  0  0  0  0  0
    5.6547  -40.9227  -26.8411 C   0  0  0  0  0  0  0  0  0  0  0  0
    4.9170  -46.1683  -27.4377 C   0  0  0  0  0  0  0  0  0  0  0  0
    4.7456  -47.5271  -27.2835 C   0  0  0  0  0  0  0  0  0  0  0  0
    5.6482  -48.2721  -26.5695 F   0  0  0  0  0  0  0  0  0  0  0  0
  2  1  1  1
  2  3  1  0
  3  4  1  0
  4  5  1  0
  5  6  1  6
  5  7  1  0
  7  8  1  0
  1  9  1  0
  9 10  1  0
 10 11  1  0
 11 12  1  0
 12 13  2  0
 12 14  1  0
 14 15  2  0
 15 16  1  0
 15 17  1  0
 17 18  2  0
 18 19  1  0
 19 20  1  0
 20 21  1  0
 21 22  1  0
 22 23  1  0
 18 24  1  0
 24 25  2  0
 25 26  1  0
  8  2  1  0
 16 10  2  0
 23 21  1  0
 25 14  1  0
M  END
$$$$
