
     RDKit          3D

 26 29  0  0  0  0  0  0  0  0999 V2000
    0.5324  -50.0431  -29.7262 S   0  0  0  0  0  0  0  0  0  0  0  0
   -0.2946  -51.6134  -29.8394 C   0  0  2  0  0  0  0  0  0  0  0  0
   -1.7899  -51.4912  -30.0281 C   0  0  0  0  0  0  0  0  0  0  0  0
   -2.4956  -52.8060  -30.0470 C   0  0  0  0  0  0  0  0  0  0  0  0
   -1.9874  -53.7990  -29.0427 C   0  0  1  0  0  0  0  0  0  0  0  0
   -1.2446  -54.7587  -29.7497 O   0  0  0  0  0  0  0  0  0  0  0  0
   -1.0374  -53.1664  -28.0469 C   0  0  0  0  0  0  0  0  0  0  0  0
    0.1331  -52.5287  -28.7528 C   0  0  0  0  0  0  0  0  0  0  0  0
    2.2418  -50.0667  -29.2526 C   0  0  0  0  0  0  0  0  0  0  0  0
    2.7904  -48.7690  -28.7998 C   0  0  0  0  0  0  0  0  0  0  0  0
    3.9902  -48.6967  -28.1991 N   0  0  0  0  0  0  0  0  0  0  0  0
    4.5656  -47.5660  -27.7817 C   0  0  0  0  0  0  0  0  0  0  0  0
    5.6897  -47.5085  -27.2201 O   0  0  0  0  0  0  0  0  0  0  0  0
    3.9034  -46.3633  -27.9668 C   0  0  0  0  0  0  0  0  0  0  0  0
    2.6696  -46.4152  -28.5819 C   0  0  0  0  0  0  0  0  0  0  0  0
    2.1462  -47.5887  -28.9786 N   0  0  0  0  0  0  0  0  0  0  0  0
    2.0228  -45.2137  -28.7607 C   0  0  0  0  0  0  0  0  0  0  0  0
    2.5538  -44.0067  -28.3579 C   0  0  0  0  0  0  0  0  0  0  0  0
    1.8693  -42.8019  -28.5558 O   0  0  0  0  0  0  0  0  0  0  0  0
    0.6431  -42.7628  -29.2591 C   0  0  0  0  0  0  0  0  0  0  0  0
    0.1334  -41.3556  -29.2650 C   0  0  0  0  0  0  0  0  0  0  0  0
   -1.2695  -41.0503  -28.9069 C   0  0  0  0  0  0  0  0  0  0  0  0
   -0.1709  -40.7478  -27.8952 C   0  0  0  0  0  0  0  0  0  0  0  0
    3.7914  -44.0015  -27.7466 C   0  0  0  0  0  0  0  0  0  0  0  0
    4.4737  -45.1823  -27.5475 C   0  0  0  0  0  0  0  0  0  0  0  0
    5.7031  -45.1893  -26.9409 F   0  0  0  0  0  0  0  0  0  0  0  0
  2  1  1  1
  2  3  1  0
  3  4  1  0
  4  5  1  0
  5  6  1  6
  5  7  1  0
  7  8  1  0
  1  9  1  0
  9 10  1  0
 10 11  1  0
 11 12  1  0
 12 13  2  0
 12 14  1  0
 14 15  2  0
 15 16  1  0
 15 17  1  0
 17 18  2  0
 18 19  1  0
 19 20  1  0
 20 21  1  0
 21 22  1  0
 22 23  1  0
 18 24  1  0
 24 25  2  0
 25 26  1  0
  8  2  1  0
 16 10  2  0
 23 21  1  0
 25 14  1  0
M  END
$$$$
