
     RDKit          3D

 31 34  0  0  0  0  0  0  0  0999 V2000
    1.3786   -7.7358  -16.3275 O   0  0  0  0  0  0  0  0  0  0  0  0
    0.4421   -6.9372  -16.0704 C   0  0  0  0  0  0  0  0  0  0  0  0
   -0.2779   -7.0050  -14.9407 N   0  0  0  0  0  0  0  0  0  0  0  0
   -1.2910   -6.1318  -14.6752 C   0  0  0  0  0  0  0  0  0  0  0  0
   -2.0301   -6.2900  -13.3972 C   0  0  0  0  0  0  0  0  0  0  0  0
   -2.3871   -4.7347  -12.5796 S   0  0  0  0  0  0  0  0  0  0  0  0
   -0.9341   -4.0375  -11.7596 C   0  0  0  0  0  0  0  0  0  0  0  0
   -1.3086   -2.6298  -11.2883 C   0  0  0  0  0  0  0  0  0  0  0  0
   -1.7968   -2.6608   -9.8561 C   0  0  0  0  0  0  0  0  0  0  0  0
   -2.5666   -3.7856   -9.5821 O   0  0  0  0  0  0  0  0  0  0  0  0
   -1.8841   -4.9730   -9.7257 C   0  0  0  0  0  0  0  0  0  0  0  0
   -0.5831   -4.8174  -10.4952 C   0  0  0  0  0  0  0  0  0  0  0  0
   -1.5742   -5.1827  -15.5647 N   0  0  0  0  0  0  0  0  0  0  0  0
   -0.8735   -5.0839  -16.7089 C   0  0  0  0  0  0  0  0  0  0  0  0
   -1.1440   -4.1083  -17.6532 C   0  0  0  0  0  0  0  0  0  0  0  0
   -0.4386   -3.9858  -18.8367 C   0  0  0  0  0  0  0  0  0  0  0  0
   -0.6992   -3.0248  -19.7746 O   0  0  0  0  0  0  0  0  0  0  0  0
   -0.3185   -3.0657  -21.1140 C   0  0  0  0  0  0  0  0  0  0  0  0
    0.1574   -1.7153  -21.6119 C   0  0  0  0  0  0  0  0  0  0  0  0
   -0.0044   -1.7061  -23.1167 C   0  0  0  0  0  0  0  0  0  0  0  0
    0.3682   -0.3489  -23.6752 C   0  0  0  0  0  0  0  0  0  0  0  0
   -0.5424    0.6236  -23.0661 N   0  0  0  0  0  0  0  0  0  0  0  0
   -1.4369    0.1437  -22.0531 C   0  0  0  0  0  0  0  0  0  0  0  0
   -0.7278   -0.6654  -20.9937 C   0  0  0  0  0  0  0  0  0  0  0  0
   -0.4910    1.9652  -23.5047 C   0  0  0  0  0  0  0  0  0  0  0  0
    0.4024    2.3542  -24.6243 C   0  0  0  0  0  0  0  0  0  0  0  0
   -1.1870    2.8512  -22.9694 O   0  0  0  0  0  0  0  0  0  0  0  0
    0.5916   -4.8709  -19.1108 C   0  0  0  0  0  0  0  0  0  0  0  0
    0.8797   -5.8511  -18.1856 C   0  0  0  0  0  0  0  0  0  0  0  0
    1.8886   -6.7454  -18.4158 F   0  0  0  0  0  0  0  0  0  0  0  0
    0.1581   -5.9598  -16.9974 C   0  0  0  0  0  0  0  0  0  0  0  0
  1  2  2  0
  2  3  1  0
  3  4  1  0
  4  5  1  0
  5  6  1  0
  6  7  1  0
  7  8  1  0
  8  9  1  0
  9 10  1  0
 10 11  1  0
 11 12  1  0
  4 13  2  0
 13 14  1  0
 14 15  2  0
 15 16  1  0
 16 17  1  0
 17 18  1  0
 18 19  1  0
 19 20  1  0
 20 21  1  0
 21 22  1  0
 22 23  1  0
 23 24  1  0
 22 25  1  0
 25 26  1  0
 25 27  2  0
 16 28  2  0
 28 29  1  0
 29 30  1  0
 29 31  2  0
 31  2  1  0
 12  7  1  0
 31 14  1  0
 24 19  1  0
M  END
$$$$
