
     RDKit          3D

 31 34  0  0  0  0  0  0  0  0999 V2000
    1.9314   -7.1842  -16.5983 O   0  0  0  0  0  0  0  0  0  0  0  0
    0.9203   -6.4886  -16.8715 C   0  0  0  0  0  0  0  0  0  0  0  0
    0.7336   -5.9230  -18.0734 N   0  0  0  0  0  0  0  0  0  0  0  0
   -0.3682   -5.1709  -18.3555 C   0  0  0  0  0  0  0  0  0  0  0  0
   -0.4829   -4.5860  -19.7153 C   0  0  0  0  0  0  0  0  0  0  0  0
    0.9870   -3.7040  -20.2414 S   0  0  0  0  0  0  0  0  0  0  0  0
    0.8312   -1.9152  -20.0273 C   0  0  0  0  0  0  0  0  0  0  0  0
    2.1148   -1.2783  -20.5666 C   0  0  0  0  0  0  0  0  0  0  0  0
    1.9395   -0.8725  -22.0140 C   0  0  0  0  0  0  0  0  0  0  0  0
    1.1836   -1.7901  -22.7347 O   0  0  0  0  0  0  0  0  0  0  0  0
   -0.1054   -1.9320  -22.2716 C   0  0  0  0  0  0  0  0  0  0  0  0
   -0.3011   -1.3508  -20.8813 C   0  0  0  0  0  0  0  0  0  0  0  0
   -1.2870   -4.9924  -17.4088 N   0  0  0  0  0  0  0  0  0  0  0  0
   -1.1337   -5.5443  -16.1915 C   0  0  0  0  0  0  0  0  0  0  0  0
   -2.0712   -5.3770  -15.1866 C   0  0  0  0  0  0  0  0  0  0  0  0
   -1.9368   -5.9336  -13.9275 C   0  0  0  0  0  0  0  0  0  0  0  0
   -2.8583   -5.7734  -12.9293 O   0  0  0  0  0  0  0  0  0  0  0  0
   -2.5773   -5.6426  -11.5712 C   0  0  0  0  0  0  0  0  0  0  0  0
   -3.8385   -5.5840  -10.7320 C   0  0  0  0  0  0  0  0  0  0  0  0
   -4.2814   -7.0094  -10.4822 C   0  0  0  0  0  0  0  0  0  0  0  0
   -5.4898   -7.0301   -9.5701 C   0  0  0  0  0  0  0  0  0  0  0  0
   -5.0802   -6.4033   -8.3109 N   0  0  0  0  0  0  0  0  0  0  0  0
   -3.7663   -5.8312   -8.2569 C   0  0  0  0  0  0  0  0  0  0  0  0
   -3.4856   -4.9196   -9.4274 C   0  0  0  0  0  0  0  0  0  0  0  0
   -5.9905   -6.3969   -7.2311 C   0  0  0  0  0  0  0  0  0  0  0  0
   -5.7571   -5.5169   -6.0588 C   0  0  0  0  0  0  0  0  0  0  0  0
   -7.0051   -7.1226   -7.2320 O   0  0  0  0  0  0  0  0  0  0  0  0
   -0.8189   -6.6986  -13.6362 C   0  0  0  0  0  0  0  0  0  0  0  0
    0.1285   -6.8795  -14.6209 C   0  0  0  0  0  0  0  0  0  0  0  0
    1.2472   -7.6275  -14.3763 F   0  0  0  0  0  0  0  0  0  0  0  0
   -0.0233   -6.3108  -15.8849 C   0  0  0  0  0  0  0  0  0  0  0  0
  1  2  2  0
  2  3  1  0
  3  4  1  0
  4  5  1  0
  5  6  1  0
  6  7  1  0
  7  8  1  0
  8  9  1  0
  9 10  1  0
 10 11  1  0
 11 12  1  0
  4 13  2  0
 13 14  1  0
 14 15  2  0
 15 16  1  0
 16 17  1  0
 17 18  1  0
 18 19  1  0
 19 20  1  0
 20 21  1  0
 21 22  1  0
 22 23  1  0
 23 24  1  0
 22 25  1  0
 25 26  1  0
 25 27  2  0
 16 28  2  0
 28 29  1  0
 29 30  1  0
 29 31  2  0
 31  2  1  0
 12  7  1  0
 31 14  1  0
 24 19  1  0
M  END
$$$$
