
     RDKit          3D

 31 34  0  0  0  0  0  0  0  0999 V2000
    1.6467   -7.5639  -16.5475 O   0  0  0  0  0  0  0  0  0  0  0  0
    0.7583   -6.7336  -16.8671 C   0  0  0  0  0  0  0  0  0  0  0  0
    0.5923   -6.2988  -18.1251 N   0  0  0  0  0  0  0  0  0  0  0  0
   -0.3759   -5.3978  -18.4571 C   0  0  0  0  0  0  0  0  0  0  0  0
   -0.4786   -4.9772  -19.8773 C   0  0  0  0  0  0  0  0  0  0  0  0
    1.0974   -4.5332  -20.6080 S   0  0  0  0  0  0  0  0  0  0  0  0
    1.5538   -2.8160  -20.2717 C   0  0  0  0  0  0  0  0  0  0  0  0
    2.9148   -2.5694  -20.9282 C   0  0  0  0  0  0  0  0  0  0  0  0
    2.7389   -1.9926  -22.3163 C   0  0  0  0  0  0  0  0  0  0  0  0
    1.6583   -2.5507  -22.9899 O   0  0  0  0  0  0  0  0  0  0  0  0
    0.4456   -2.3211  -22.3792 C   0  0  0  0  0  0  0  0  0  0  0  0
    0.5880   -1.8435  -20.9437 C   0  0  0  0  0  0  0  0  0  0  0  0
   -1.1813   -4.9355  -17.5032 N   0  0  0  0  0  0  0  0  0  0  0  0
   -1.0446   -5.3490  -16.2302 C   0  0  0  0  0  0  0  0  0  0  0  0
   -1.8663   -4.8868  -15.2163 C   0  0  0  0  0  0  0  0  0  0  0  0
   -1.7461   -5.2960  -13.9005 C   0  0  0  0  0  0  0  0  0  0  0  0
   -2.5538   -4.8446  -12.8931 O   0  0  0  0  0  0  0  0  0  0  0  0
   -2.3017   -4.9639  -11.5282 C   0  0  0  0  0  0  0  0  0  0  0  0
   -2.2211   -3.6134  -10.8442 C   0  0  0  0  0  0  0  0  0  0  0  0
   -3.5047   -3.4246  -10.0648 C   0  0  0  0  0  0  0  0  0  0  0  0
   -3.4551   -2.1308   -9.2797 C   0  0  0  0  0  0  0  0  0  0  0  0
   -2.3199   -2.2374   -8.3599 N   0  0  0  0  0  0  0  0  0  0  0  0
   -1.4836   -3.3964   -8.4774 C   0  0  0  0  0  0  0  0  0  0  0  0
   -1.0481   -3.6514   -9.9005 C   0  0  0  0  0  0  0  0  0  0  0  0
   -2.1135   -1.2054   -7.4180 C   0  0  0  0  0  0  0  0  0  0  0  0
   -3.1822   -0.2112   -7.1487 C   0  0  0  0  0  0  0  0  0  0  0  0
   -1.0391   -1.1014   -6.7928 O   0  0  0  0  0  0  0  0  0  0  0  0
   -0.7638   -6.2114  -13.5585 C   0  0  0  0  0  0  0  0  0  0  0  0
    0.0666   -6.6860  -14.5509 C   0  0  0  0  0  0  0  0  0  0  0  0
    1.0495   -7.5908  -14.2574 F   0  0  0  0  0  0  0  0  0  0  0  0
   -0.0688   -6.2624  -15.8725 C   0  0  0  0  0  0  0  0  0  0  0  0
  1  2  2  0
  2  3  1  0
  3  4  1  0
  4  5  1  0
  5  6  1  0
  6  7  1  0
  7  8  1  0
  8  9  1  0
  9 10  1  0
 10 11  1  0
 11 12  1  0
  4 13  2  0
 13 14  1  0
 14 15  2  0
 15 16  1  0
 16 17  1  0
 17 18  1  0
 18 19  1  0
 19 20  1  0
 20 21  1  0
 21 22  1  0
 22 23  1  0
 23 24  1  0
 22 25  1  0
 25 26  1  0
 25 27  2  0
 16 28  2  0
 28 29  1  0
 29 30  1  0
 29 31  2  0
 31  2  1  0
 12  7  1  0
 31 14  1  0
 24 19  1  0
M  END
$$$$
