
     RDKit          3D

 31 34  0  0  0  0  0  0  0  0999 V2000
    1.9685   -7.3015  -16.5155 O   0  0  0  0  0  0  0  0  0  0  0  0
    0.9712   -6.5949  -16.8105 C   0  0  0  0  0  0  0  0  0  0  0  0
    0.7775   -6.0924  -18.0390 N   0  0  0  0  0  0  0  0  0  0  0  0
   -0.3092   -5.3274  -18.3445 C   0  0  0  0  0  0  0  0  0  0  0  0
   -0.4332   -4.8163  -19.7329 C   0  0  0  0  0  0  0  0  0  0  0  0
    0.7712   -3.5522  -20.1406 S   0  0  0  0  0  0  0  0  0  0  0  0
    0.0851   -1.8832  -20.0238 C   0  0  0  0  0  0  0  0  0  0  0  0
    1.0266   -0.9490  -20.7887 C   0  0  0  0  0  0  0  0  0  0  0  0
    0.5588   -0.7757  -22.2175 C   0  0  0  0  0  0  0  0  0  0  0  0
    0.0505   -1.9524  -22.7558 O   0  0  0  0  0  0  0  0  0  0  0  0
   -1.0618   -2.4280  -22.0979 C   0  0  0  0  0  0  0  0  0  0  0  0
   -1.2619   -1.7860  -20.7353 C   0  0  0  0  0  0  0  0  0  0  0  0
   -1.2055   -5.0715  -17.3941 N   0  0  0  0  0  0  0  0  0  0  0  0
   -1.0446   -5.5586  -16.1504 C   0  0  0  0  0  0  0  0  0  0  0  0
   -1.9589   -5.3100  -15.1409 C   0  0  0  0  0  0  0  0  0  0  0  0
   -1.8162   -5.7989  -13.8549 C   0  0  0  0  0  0  0  0  0  0  0  0
   -2.7148   -5.5582  -12.8520 O   0  0  0  0  0  0  0  0  0  0  0  0
   -2.4060   -5.3638  -11.5076 C   0  0  0  0  0  0  0  0  0  0  0  0
   -3.6464   -5.3412  -10.6363 C   0  0  0  0  0  0  0  0  0  0  0  0
   -4.3254   -6.6859  -10.7822 C   0  0  0  0  0  0  0  0  0  0  0  0
   -5.5277   -6.7677   -9.8655 C   0  0  0  0  0  0  0  0  0  0  0  0
   -5.0290   -6.6025   -8.4980 N   0  0  0  0  0  0  0  0  0  0  0  0
   -3.6380   -6.2932   -8.3371 C   0  0  0  0  0  0  0  0  0  0  0  0
   -3.1977   -5.1442   -9.2123 C   0  0  0  0  0  0  0  0  0  0  0  0
   -5.9344   -6.7556   -7.4248 C   0  0  0  0  0  0  0  0  0  0  0  0
   -7.3398   -7.1581   -7.6812 C   0  0  0  0  0  0  0  0  0  0  0  0
   -5.5825   -6.5589   -6.2444 O   0  0  0  0  0  0  0  0  0  0  0  0
   -0.7136   -6.5766  -13.5398 C   0  0  0  0  0  0  0  0  0  0  0  0
    0.2106   -6.8379  -14.5285 C   0  0  0  0  0  0  0  0  0  0  0  0
    1.3135   -7.6013  -14.2610 F   0  0  0  0  0  0  0  0  0  0  0  0
    0.0507   -6.3367  -15.8198 C   0  0  0  0  0  0  0  0  0  0  0  0
  1  2  2  0
  2  3  1  0
  3  4  1  0
  4  5  1  0
  5  6  1  0
  6  7  1  0
  7  8  1  0
  8  9  1  0
  9 10  1  0
 10 11  1  0
 11 12  1  0
  4 13  2  0
 13 14  1  0
 14 15  2  0
 15 16  1  0
 16 17  1  0
 17 18  1  0
 18 19  1  0
 19 20  1  0
 20 21  1  0
 21 22  1  0
 22 23  1  0
 23 24  1  0
 22 25  1  0
 25 26  1  0
 25 27  2  0
 16 28  2  0
 28 29  1  0
 29 30  1  0
 29 31  2  0
 31  2  1  0
 12  7  1  0
 31 14  1  0
 24 19  1  0
M  END
$$$$
