
     RDKit          3D

 31 34  0  0  0  0  0  0  0  0999 V2000
    1.5849   -7.6984  -16.1680 O   0  0  0  0  0  0  0  0  0  0  0  0
    0.6962   -6.8269  -15.9903 C   0  0  0  0  0  0  0  0  0  0  0  0
    0.0846   -6.6462  -14.8103 N   0  0  0  0  0  0  0  0  0  0  0  0
   -0.8779   -5.6968  -14.6323 C   0  0  0  0  0  0  0  0  0  0  0  0
   -1.4966   -5.5755  -13.2882 C   0  0  0  0  0  0  0  0  0  0  0  0
   -2.5395   -6.9673  -12.8520 S   0  0  0  0  0  0  0  0  0  0  0  0
   -1.9890   -7.7942  -11.3410 C   0  0  0  0  0  0  0  0  0  0  0  0
   -2.8245   -7.2360  -10.1858 C   0  0  0  0  0  0  0  0  0  0  0  0
   -4.0324   -8.1115   -9.9315 C   0  0  0  0  0  0  0  0  0  0  0  0
   -4.5897   -8.6015  -11.1072 O   0  0  0  0  0  0  0  0  0  0  0  0
   -3.7399   -9.4099  -11.8287 C   0  0  0  0  0  0  0  0  0  0  0  0
   -2.2915   -9.2897  -11.3854 C   0  0  0  0  0  0  0  0  0  0  0  0
   -1.2210   -4.9254  -15.6616 N   0  0  0  0  0  0  0  0  0  0  0  0
   -0.6293   -5.0777  -16.8602 C   0  0  0  0  0  0  0  0  0  0  0  0
   -0.9643   -4.2913  -17.9493 C   0  0  0  0  0  0  0  0  0  0  0  0
   -0.3710   -4.4281  -19.1912 C   0  0  0  0  0  0  0  0  0  0  0  0
   -0.6960   -3.6552  -20.2721 O   0  0  0  0  0  0  0  0  0  0  0  0
    0.1385   -3.3641  -21.3489 C   0  0  0  0  0  0  0  0  0  0  0  0
   -0.5414   -2.4756  -22.3718 C   0  0  0  0  0  0  0  0  0  0  0  0
   -1.3202   -1.4247  -21.6107 C   0  0  0  0  0  0  0  0  0  0  0  0
   -1.9542   -0.4430  -22.5735 C   0  0  0  0  0  0  0  0  0  0  0  0
   -0.8604    0.1843  -23.3193 N   0  0  0  0  0  0  0  0  0  0  0  0
    0.4641   -0.3160  -23.0914 C   0  0  0  0  0  0  0  0  0  0  0  0
    0.5377   -1.8207  -23.1933 C   0  0  0  0  0  0  0  0  0  0  0  0
   -1.1659    1.2358  -24.2114 C   0  0  0  0  0  0  0  0  0  0  0  0
   -0.0777    1.9924  -24.8794 C   0  0  0  0  0  0  0  0  0  0  0  0
   -2.3459    1.5548  -24.4604 O   0  0  0  0  0  0  0  0  0  0  0  0
    0.6073   -5.3915  -19.3768 C   0  0  0  0  0  0  0  0  0  0  0  0
    0.9580   -6.1868  -18.3070 C   0  0  0  0  0  0  0  0  0  0  0  0
    1.9191   -7.1500  -18.4460 F   0  0  0  0  0  0  0  0  0  0  0  0
    0.3493   -6.0349  -17.0617 C   0  0  0  0  0  0  0  0  0  0  0  0
  1  2  2  0
  2  3  1  0
  3  4  1  0
  4  5  1  0
  5  6  1  0
  6  7  1  0
  7  8  1  0
  8  9  1  0
  9 10  1  0
 10 11  1  0
 11 12  1  0
  4 13  2  0
 13 14  1  0
 14 15  2  0
 15 16  1  0
 16 17  1  0
 17 18  1  0
 18 19  1  0
 19 20  1  0
 20 21  1  0
 21 22  1  0
 22 23  1  0
 23 24  1  0
 22 25  1  0
 25 26  1  0
 25 27  2  0
 16 28  2  0
 28 29  1  0
 29 30  1  0
 29 31  2  0
 31  2  1  0
 12  7  1  0
 31 14  1  0
 24 19  1  0
M  END
$$$$
