
     RDKit          3D

 31 34  0  0  0  0  0  0  0  0999 V2000
    1.9084   -7.6561  -16.5670 O   0  0  0  0  0  0  0  0  0  0  0  0
    1.0698   -6.8175  -16.9844 C   0  0  0  0  0  0  0  0  0  0  0  0
    1.0115   -6.4283  -18.2668 N   0  0  0  0  0  0  0  0  0  0  0  0
    0.0963   -5.5175  -18.7053 C   0  0  0  0  0  0  0  0  0  0  0  0
    0.1129   -5.1505  -20.1439 C   0  0  0  0  0  0  0  0  0  0  0  0
    1.0192   -3.6420  -20.4873 S   0  0  0  0  0  0  0  0  0  0  0  0
    0.2553   -2.1905  -19.7261 C   0  0  0  0  0  0  0  0  0  0  0  0
    1.0970   -0.9736  -20.1197 C   0  0  0  0  0  0  0  0  0  0  0  0
    0.5322   -0.3150  -21.3597 C   0  0  0  0  0  0  0  0  0  0  0  0
    0.0535   -1.2400  -22.2806 O   0  0  0  0  0  0  0  0  0  0  0  0
   -0.9891   -2.0051  -21.8073 C   0  0  0  0  0  0  0  0  0  0  0  0
   -1.1368   -1.9327  -20.2967 C   0  0  0  0  0  0  0  0  0  0  0  0
   -0.7659   -4.9985  -17.8338 N   0  0  0  0  0  0  0  0  0  0  0  0
   -0.7373   -5.3650  -16.5396 C   0  0  0  0  0  0  0  0  0  0  0  0
   -1.6203   -4.8433  -15.6095 C   0  0  0  0  0  0  0  0  0  0  0  0
   -1.6113   -5.2035  -14.2741 C   0  0  0  0  0  0  0  0  0  0  0  0
   -2.4801   -4.6932  -13.3490 O   0  0  0  0  0  0  0  0  0  0  0  0
   -2.4254   -3.4168  -12.7935 C   0  0  0  0  0  0  0  0  0  0  0  0
   -2.5561   -3.4472  -11.2835 C   0  0  0  0  0  0  0  0  0  0  0  0
   -1.1569   -3.4047  -10.7081 C   0  0  0  0  0  0  0  0  0  0  0  0
   -1.2142   -3.3403   -9.1963 C   0  0  0  0  0  0  0  0  0  0  0  0
   -1.9364   -2.1130   -8.8523 N   0  0  0  0  0  0  0  0  0  0  0  0
   -2.5047   -1.3587   -9.9314 C   0  0  0  0  0  0  0  0  0  0  0  0
   -3.3197   -2.2172  -10.8688 C   0  0  0  0  0  0  0  0  0  0  0  0
   -2.0323   -1.7434   -7.4925 C   0  0  0  0  0  0  0  0  0  0  0  0
   -2.7658   -0.5144   -7.0995 C   0  0  0  0  0  0  0  0  0  0  0  0
   -1.5091   -2.4318   -6.5934 O   0  0  0  0  0  0  0  0  0  0  0  0
   -0.6832   -6.1286  -13.8239 C   0  0  0  0  0  0  0  0  0  0  0  0
    0.2066   -6.6621  -14.7315 C   0  0  0  0  0  0  0  0  0  0  0  0
    1.1392   -7.5785  -14.3300 F   0  0  0  0  0  0  0  0  0  0  0  0
    0.1831   -6.2874  -16.0744 C   0  0  0  0  0  0  0  0  0  0  0  0
  1  2  2  0
  2  3  1  0
  3  4  1  0
  4  5  1  0
  5  6  1  0
  6  7  1  0
  7  8  1  0
  8  9  1  0
  9 10  1  0
 10 11  1  0
 11 12  1  0
  4 13  2  0
 13 14  1  0
 14 15  2  0
 15 16  1  0
 16 17  1  0
 17 18  1  0
 18 19  1  0
 19 20  1  0
 20 21  1  0
 21 22  1  0
 22 23  1  0
 23 24  1  0
 22 25  1  0
 25 26  1  0
 25 27  2  0
 16 28  2  0
 28 29  1  0
 29 30  1  0
 29 31  2  0
 31  2  1  0
 12  7  1  0
 31 14  1  0
 24 19  1  0
M  END
$$$$
