
     RDKit          3D

 31 34  0  0  0  0  0  0  0  0999 V2000
    1.5049   -7.8146  -15.8828 O   0  0  0  0  0  0  0  0  0  0  0  0
    0.6263   -6.9213  -15.7786 C   0  0  0  0  0  0  0  0  0  0  0  0
   -0.0788   -6.7265  -14.6543 N   0  0  0  0  0  0  0  0  0  0  0  0
   -1.0290   -5.7534  -14.5558 C   0  0  0  0  0  0  0  0  0  0  0  0
   -1.7566   -5.6180  -13.2688 C   0  0  0  0  0  0  0  0  0  0  0  0
   -2.0449   -7.1824  -12.4414 S   0  0  0  0  0  0  0  0  0  0  0  0
   -3.8044   -7.5788  -12.3103 C   0  0  0  0  0  0  0  0  0  0  0  0
   -3.9129   -9.0764  -12.0111 C   0  0  0  0  0  0  0  0  0  0  0  0
   -3.9997   -9.3158  -10.5193 C   0  0  0  0  0  0  0  0  0  0  0  0
   -3.1867   -8.4514   -9.7949 O   0  0  0  0  0  0  0  0  0  0  0  0
   -3.5228   -7.1237   -9.9380 C   0  0  0  0  0  0  0  0  0  0  0  0
   -4.4451   -6.8715  -11.1189 C   0  0  0  0  0  0  0  0  0  0  0  0
   -1.2640   -4.9726  -15.6082 N   0  0  0  0  0  0  0  0  0  0  0  0
   -0.5764   -5.1385  -16.7526 C   0  0  0  0  0  0  0  0  0  0  0  0
   -0.7979   -4.3429  -17.8637 C   0  0  0  0  0  0  0  0  0  0  0  0
   -0.1047   -4.4933  -19.0512 C   0  0  0  0  0  0  0  0  0  0  0  0
   -0.3172   -3.7115  -20.1533 O   0  0  0  0  0  0  0  0  0  0  0  0
    0.6703   -3.1592  -20.9660 C   0  0  0  0  0  0  0  0  0  0  0  0
    0.0833   -2.4163  -22.1500 C   0  0  0  0  0  0  0  0  0  0  0  0
   -1.2463   -1.8430  -21.7093 C   0  0  0  0  0  0  0  0  0  0  0  0
   -1.8497   -1.0075  -22.8186 C   0  0  0  0  0  0  0  0  0  0  0  0
   -0.9028    0.0754  -23.0956 N   0  0  0  0  0  0  0  0  0  0  0  0
    0.3536    0.0443  -22.4050 C   0  0  0  0  0  0  0  0  0  0  0  0
    1.0322   -1.3011  -22.5022 C   0  0  0  0  0  0  0  0  0  0  0  0
   -1.2744    1.0796  -24.0166 C   0  0  0  0  0  0  0  0  0  0  0  0
   -0.3942    2.2534  -24.2416 C   0  0  0  0  0  0  0  0  0  0  0  0
   -2.3409    1.0094  -24.6597 O   0  0  0  0  0  0  0  0  0  0  0  0
    0.8616   -5.4807  -19.1559 C   0  0  0  0  0  0  0  0  0  0  0  0
    1.1001   -6.2856  -18.0626 C   0  0  0  0  0  0  0  0  0  0  0  0
    2.0453   -7.2724  -18.1224 F   0  0  0  0  0  0  0  0  0  0  0  0
    0.3916   -6.1198  -16.8732 C   0  0  0  0  0  0  0  0  0  0  0  0
  1  2  2  0
  2  3  1  0
  3  4  1  0
  4  5  1  0
  5  6  1  0
  6  7  1  0
  7  8  1  0
  8  9  1  0
  9 10  1  0
 10 11  1  0
 11 12  1  0
  4 13  2  0
 13 14  1  0
 14 15  2  0
 15 16  1  0
 16 17  1  0
 17 18  1  0
 18 19  1  0
 19 20  1  0
 20 21  1  0
 21 22  1  0
 22 23  1  0
 23 24  1  0
 22 25  1  0
 25 26  1  0
 25 27  2  0
 16 28  2  0
 28 29  1  0
 29 30  1  0
 29 31  2  0
 31  2  1  0
 12  7  1  0
 31 14  1  0
 24 19  1  0
M  END
$$$$
