
     RDKit          3D

 31 34  0  0  0  0  0  0  0  0999 V2000
    1.7232   -7.7034  -16.0775 O   0  0  0  0  0  0  0  0  0  0  0  0
    1.0014   -6.8355  -16.6311 C   0  0  0  0  0  0  0  0  0  0  0  0
    1.1662   -6.4646  -17.9095 N   0  0  0  0  0  0  0  0  0  0  0  0
    0.3755   -5.5217  -18.4969 C   0  0  0  0  0  0  0  0  0  0  0  0
    0.6382   -5.1788  -19.9173 C   0  0  0  0  0  0  0  0  0  0  0  0
    1.0549   -3.4535  -20.1719 S   0  0  0  0  0  0  0  0  0  0  0  0
   -0.3204   -2.3470  -19.7793 C   0  0  0  0  0  0  0  0  0  0  0  0
    0.0999   -0.9337  -20.1919 C   0  0  0  0  0  0  0  0  0  0  0  0
   -0.3756   -0.6260  -21.5954 C   0  0  0  0  0  0  0  0  0  0  0  0
   -0.2817   -1.7258  -22.4405 O   0  0  0  0  0  0  0  0  0  0  0  0
   -1.0621   -2.7918  -22.0522 C   0  0  0  0  0  0  0  0  0  0  0  0
   -1.5525   -2.6739  -20.6189 C   0  0  0  0  0  0  0  0  0  0  0  0
   -0.5899   -4.9515  -17.7791 N   0  0  0  0  0  0  0  0  0  0  0  0
   -0.7850   -5.2981  -16.4939 C   0  0  0  0  0  0  0  0  0  0  0  0
   -1.7801   -4.7234  -15.7217 C   0  0  0  0  0  0  0  0  0  0  0  0
   -2.0008   -5.0623  -14.3990 C   0  0  0  0  0  0  0  0  0  0  0  0
   -2.9817   -4.4997  -13.6293 O   0  0  0  0  0  0  0  0  0  0  0  0
   -3.1363   -4.6633  -12.2546 C   0  0  0  0  0  0  0  0  0  0  0  0
   -2.3580   -3.6278  -11.4671 C   0  0  0  0  0  0  0  0  0  0  0  0
   -3.2243   -2.3907  -11.3683 C   0  0  0  0  0  0  0  0  0  0  0  0
   -2.5443   -1.3423  -10.5132 C   0  0  0  0  0  0  0  0  0  0  0  0
   -2.3598   -1.9337   -9.1857 N   0  0  0  0  0  0  0  0  0  0  0  0
   -2.7146   -3.3137   -9.0244 C   0  0  0  0  0  0  0  0  0  0  0  0
   -2.1112   -4.1932  -10.0932 C   0  0  0  0  0  0  0  0  0  0  0  0
   -1.8489   -1.1221   -8.1488 C   0  0  0  0  0  0  0  0  0  0  0  0
   -1.6170   -1.6899   -6.7972 C   0  0  0  0  0  0  0  0  0  0  0  0
   -1.5812    0.0816   -8.3375 O   0  0  0  0  0  0  0  0  0  0  0  0
   -1.1998   -6.0199  -13.7980 C   0  0  0  0  0  0  0  0  0  0  0  0
   -0.2021   -6.6064  -14.5468 C   0  0  0  0  0  0  0  0  0  0  0  0
    0.6114   -7.5564  -13.9932 F   0  0  0  0  0  0  0  0  0  0  0  0
    0.0061   -6.2525  -15.8793 C   0  0  0  0  0  0  0  0  0  0  0  0
  1  2  2  0
  2  3  1  0
  3  4  1  0
  4  5  1  0
  5  6  1  0
  6  7  1  0
  7  8  1  0
  8  9  1  0
  9 10  1  0
 10 11  1  0
 11 12  1  0
  4 13  2  0
 13 14  1  0
 14 15  2  0
 15 16  1  0
 16 17  1  0
 17 18  1  0
 18 19  1  0
 19 20  1  0
 20 21  1  0
 21 22  1  0
 22 23  1  0
 23 24  1  0
 22 25  1  0
 25 26  1  0
 25 27  2  0
 16 28  2  0
 28 29  1  0
 29 30  1  0
 29 31  2  0
 31  2  1  0
 12  7  1  0
 31 14  1  0
 24 19  1  0
M  END
$$$$
