
     RDKit          3D

 31 34  0  0  0  0  0  0  0  0999 V2000
    1.4044   -7.7323  -15.9424 O   0  0  0  0  0  0  0  0  0  0  0  0
    0.5210   -6.8576  -15.7546 C   0  0  0  0  0  0  0  0  0  0  0  0
   -0.1329   -6.7268  -14.5908 N   0  0  0  0  0  0  0  0  0  0  0  0
   -1.0890   -5.7732  -14.4015 C   0  0  0  0  0  0  0  0  0  0  0  0
   -1.7570   -5.7097  -13.0771 C   0  0  0  0  0  0  0  0  0  0  0  0
   -1.9867   -7.3157  -12.3136 S   0  0  0  0  0  0  0  0  0  0  0  0
   -3.7097   -7.6229  -11.8590 C   0  0  0  0  0  0  0  0  0  0  0  0
   -3.9305   -9.1372  -11.9066 C   0  0  0  0  0  0  0  0  0  0  0  0
   -3.7179   -9.7488  -10.5387 C   0  0  0  0  0  0  0  0  0  0  0  0
   -2.6681   -9.1535   -9.8486 O   0  0  0  0  0  0  0  0  0  0  0  0
   -2.8642   -7.8159   -9.5869 C   0  0  0  0  0  0  0  0  0  0  0  0
   -3.9846   -7.2099  -10.4154 C   0  0  0  0  0  0  0  0  0  0  0  0
   -1.3825   -4.9465  -15.4028 N   0  0  0  0  0  0  0  0  0  0  0  0
   -0.7474   -5.0477  -16.5845 C   0  0  0  0  0  0  0  0  0  0  0  0
   -1.0303   -4.2032  -17.6444 C   0  0  0  0  0  0  0  0  0  0  0  0
   -0.3918   -4.2868  -18.8686 C   0  0  0  0  0  0  0  0  0  0  0  0
   -0.6651   -3.4563  -19.9206 O   0  0  0  0  0  0  0  0  0  0  0  0
    0.1914   -3.1735  -20.9822 C   0  0  0  0  0  0  0  0  0  0  0  0
   -0.4203   -2.1902  -21.9606 C   0  0  0  0  0  0  0  0  0  0  0  0
   -0.8993   -0.9972  -21.1619 C   0  0  0  0  0  0  0  0  0  0  0  0
   -1.4420    0.0699  -22.0889 C   0  0  0  0  0  0  0  0  0  0  0  0
   -0.3404    0.4648  -22.9702 N   0  0  0  0  0  0  0  0  0  0  0  0
    0.8843   -0.2738  -22.8652 C   0  0  0  0  0  0  0  0  0  0  0  0
    0.6636   -1.7667  -22.9165 C   0  0  0  0  0  0  0  0  0  0  0  0
   -0.5417    1.5393  -23.8645 C   0  0  0  0  0  0  0  0  0  0  0  0
   -1.5215    2.6074  -23.5448 C   0  0  0  0  0  0  0  0  0  0  0  0
    0.0911    1.6200  -24.9364 O   0  0  0  0  0  0  0  0  0  0  0  0
    0.5804   -5.2542  -19.0655 C   0  0  0  0  0  0  0  0  0  0  0  0
    0.8795   -6.1069  -18.0247 C   0  0  0  0  0  0  0  0  0  0  0  0
    1.8326   -7.0762  -18.1758 F   0  0  0  0  0  0  0  0  0  0  0  0
    0.2257   -6.0082  -16.7971 C   0  0  0  0  0  0  0  0  0  0  0  0
  1  2  2  0
  2  3  1  0
  3  4  1  0
  4  5  1  0
  5  6  1  0
  6  7  1  0
  7  8  1  0
  8  9  1  0
  9 10  1  0
 10 11  1  0
 11 12  1  0
  4 13  2  0
 13 14  1  0
 14 15  2  0
 15 16  1  0
 16 17  1  0
 17 18  1  0
 18 19  1  0
 19 20  1  0
 20 21  1  0
 21 22  1  0
 22 23  1  0
 23 24  1  0
 22 25  1  0
 25 26  1  0
 25 27  2  0
 16 28  2  0
 28 29  1  0
 29 30  1  0
 29 31  2  0
 31  2  1  0
 12  7  1  0
 31 14  1  0
 24 19  1  0
M  END
$$$$
