
     RDKit          3D

 31 34  0  0  0  0  0  0  0  0999 V2000
    1.5064   -7.6977  -16.0560 O   0  0  0  0  0  0  0  0  0  0  0  0
    0.6038   -6.8476  -15.8476 C   0  0  0  0  0  0  0  0  0  0  0  0
   -0.0182   -6.7266  -14.6654 N   0  0  0  0  0  0  0  0  0  0  0  0
   -0.9958   -5.7997  -14.4539 C   0  0  0  0  0  0  0  0  0  0  0  0
   -1.6251   -5.7451  -13.1103 C   0  0  0  0  0  0  0  0  0  0  0  0
   -1.8221   -7.3552  -12.3462 S   0  0  0  0  0  0  0  0  0  0  0  0
   -3.5533   -7.8711  -12.2622 C   0  0  0  0  0  0  0  0  0  0  0  0
   -3.5685   -9.3566  -11.8921 C   0  0  0  0  0  0  0  0  0  0  0  0
   -3.7002   -9.5303  -10.3945 C   0  0  0  0  0  0  0  0  0  0  0  0
   -2.9808   -8.5758   -9.6843 O   0  0  0  0  0  0  0  0  0  0  0  0
   -3.4032   -7.2842   -9.9069 C   0  0  0  0  0  0  0  0  0  0  0  0
   -4.2911   -7.1559  -11.1333 C   0  0  0  0  0  0  0  0  0  0  0  0
   -1.3435   -4.9899  -15.4517 N   0  0  0  0  0  0  0  0  0  0  0  0
   -0.7417   -5.0821  -16.6514 C   0  0  0  0  0  0  0  0  0  0  0  0
   -1.0812   -4.2547  -17.7082 C   0  0  0  0  0  0  0  0  0  0  0  0
   -0.4778   -4.3295  -18.9506 C   0  0  0  0  0  0  0  0  0  0  0  0
   -0.8070   -3.5158  -19.9997 O   0  0  0  0  0  0  0  0  0  0  0  0
    0.0305   -3.1659  -21.0565 C   0  0  0  0  0  0  0  0  0  0  0  0
   -0.6184   -2.1616  -21.9885 C   0  0  0  0  0  0  0  0  0  0  0  0
   -1.0858   -0.9969  -21.1426 C   0  0  0  0  0  0  0  0  0  0  0  0
   -1.6651    0.0904  -22.0229 C   0  0  0  0  0  0  0  0  0  0  0  0
   -0.5931    0.5217  -22.9233 N   0  0  0  0  0  0  0  0  0  0  0  0
    0.6412   -0.2068  -22.8743 C   0  0  0  0  0  0  0  0  0  0  0  0
    0.4336   -1.6998  -22.9622 C   0  0  0  0  0  0  0  0  0  0  0  0
   -0.8302    1.6190  -23.7804 C   0  0  0  0  0  0  0  0  0  0  0  0
   -1.8959    2.6020  -23.4625 C   0  0  0  0  0  0  0  0  0  0  0  0
   -0.1584    1.7910  -24.8172 O   0  0  0  0  0  0  0  0  0  0  0  0
    0.5160   -5.2698  -19.1701 C   0  0  0  0  0  0  0  0  0  0  0  0
    0.8713   -6.1050  -18.1328 C   0  0  0  0  0  0  0  0  0  0  0  0
    1.8475   -7.0473  -18.3060 F   0  0  0  0  0  0  0  0  0  0  0  0
    0.2522   -6.0155  -16.8866 C   0  0  0  0  0  0  0  0  0  0  0  0
  1  2  2  0
  2  3  1  0
  3  4  1  0
  4  5  1  0
  5  6  1  0
  6  7  1  0
  7  8  1  0
  8  9  1  0
  9 10  1  0
 10 11  1  0
 11 12  1  0
  4 13  2  0
 13 14  1  0
 14 15  2  0
 15 16  1  0
 16 17  1  0
 17 18  1  0
 18 19  1  0
 19 20  1  0
 20 21  1  0
 21 22  1  0
 22 23  1  0
 23 24  1  0
 22 25  1  0
 25 26  1  0
 25 27  2  0
 16 28  2  0
 28 29  1  0
 29 30  1  0
 29 31  2  0
 31  2  1  0
 12  7  1  0
 31 14  1  0
 24 19  1  0
M  END
$$$$
