
     RDKit          3D

 31 34  0  0  0  0  0  0  0  0999 V2000
    1.6670   -7.5597  -15.8428 O   0  0  0  0  0  0  0  0  0  0  0  0
    1.1458   -6.6110  -16.4823 C   0  0  0  0  0  0  0  0  0  0  0  0
    1.5465   -6.2609  -17.7136 N   0  0  0  0  0  0  0  0  0  0  0  0
    0.9718   -5.2293  -18.3953 C   0  0  0  0  0  0  0  0  0  0  0  0
    1.4868   -4.9186  -19.7527 C   0  0  0  0  0  0  0  0  0  0  0  0
    1.1387   -3.2417  -20.2838 S   0  0  0  0  0  0  0  0  0  0  0  0
   -0.3937   -3.1245  -21.2366 C   0  0  0  0  0  0  0  0  0  0  0  0
   -0.8328   -1.6579  -21.2147 C   0  0  0  0  0  0  0  0  0  0  0  0
   -0.3091   -0.9278  -22.4325 C   0  0  0  0  0  0  0  0  0  0  0  0
    0.9733   -1.3337  -22.7838 O   0  0  0  0  0  0  0  0  0  0  0  0
    1.0581   -2.6633  -23.1323 C   0  0  0  0  0  0  0  0  0  0  0  0
   -0.1606   -3.4646  -22.7063 C   0  0  0  0  0  0  0  0  0  0  0  0
   -0.0177   -4.5485  -17.8210 N   0  0  0  0  0  0  0  0  0  0  0  0
   -0.4462   -4.8709  -16.5872 C   0  0  0  0  0  0  0  0  0  0  0  0
   -1.4725   -4.1821  -15.9634 C   0  0  0  0  0  0  0  0  0  0  0  0
   -1.9309   -4.4937  -14.6962 C   0  0  0  0  0  0  0  0  0  0  0  0
   -2.9444   -3.8186  -14.0731 O   0  0  0  0  0  0  0  0  0  0  0  0
   -2.9305   -3.3548  -12.7596 C   0  0  0  0  0  0  0  0  0  0  0  0
   -2.5088   -1.9011  -12.6737 C   0  0  0  0  0  0  0  0  0  0  0  0
   -3.5751   -1.0799  -13.3659 C   0  0  0  0  0  0  0  0  0  0  0  0
   -3.2638    0.3965  -13.2388 C   0  0  0  0  0  0  0  0  0  0  0  0
   -3.2445    0.7030  -11.8064 N   0  0  0  0  0  0  0  0  0  0  0  0
   -3.3841   -0.3960  -10.8958 C   0  0  0  0  0  0  0  0  0  0  0  0
   -2.4428   -1.5327  -11.2150 C   0  0  0  0  0  0  0  0  0  0  0  0
   -3.0917    2.0484  -11.4047 C   0  0  0  0  0  0  0  0  0  0  0  0
   -2.9520    2.3904   -9.9672 C   0  0  0  0  0  0  0  0  0  0  0  0
   -3.0701    2.9769  -12.2374 O   0  0  0  0  0  0  0  0  0  0  0  0
   -1.3499   -5.5412  -13.9997 C   0  0  0  0  0  0  0  0  0  0  0  0
   -0.3260   -6.2420  -14.6001 C   0  0  0  0  0  0  0  0  0  0  0  0
    0.2755   -7.2832  -13.9484 F   0  0  0  0  0  0  0  0  0  0  0  0
    0.1235   -5.9139  -15.8786 C   0  0  0  0  0  0  0  0  0  0  0  0
  1  2  2  0
  2  3  1  0
  3  4  1  0
  4  5  1  0
  5  6  1  0
  6  7  1  0
  7  8  1  0
  8  9  1  0
  9 10  1  0
 10 11  1  0
 11 12  1  0
  4 13  2  0
 13 14  1  0
 14 15  2  0
 15 16  1  0
 16 17  1  0
 17 18  1  0
 18 19  1  0
 19 20  1  0
 20 21  1  0
 21 22  1  0
 22 23  1  0
 23 24  1  0
 22 25  1  0
 25 26  1  0
 25 27  2  0
 16 28  2  0
 28 29  1  0
 29 30  1  0
 29 31  2  0
 31  2  1  0
 12  7  1  0
 31 14  1  0
 24 19  1  0
M  END
$$$$
