
     RDKit          3D

 31 34  0  0  0  0  0  0  0  0999 V2000
    1.5081   -7.6733  -16.0096 O   0  0  0  0  0  0  0  0  0  0  0  0
    0.6010   -6.8162  -15.8566 C   0  0  0  0  0  0  0  0  0  0  0  0
   -0.0521   -6.6521  -14.6965 N   0  0  0  0  0  0  0  0  0  0  0  0
   -1.0340   -5.7182  -14.5451 C   0  0  0  0  0  0  0  0  0  0  0  0
   -1.6988   -5.6145  -13.2216 C   0  0  0  0  0  0  0  0  0  0  0  0
   -1.9785   -7.2012  -12.4349 S   0  0  0  0  0  0  0  0  0  0  0  0
   -3.7300   -7.5085  -12.1063 C   0  0  0  0  0  0  0  0  0  0  0  0
   -3.8911   -9.0115  -11.8631 C   0  0  0  0  0  0  0  0  0  0  0  0
   -3.8122   -9.3223  -10.3840 C   0  0  0  0  0  0  0  0  0  0  0  0
   -2.8679   -8.5414   -9.7273 O   0  0  0  0  0  0  0  0  0  0  0  0
   -3.1387   -7.1919   -9.7687 C   0  0  0  0  0  0  0  0  0  0  0  0
   -4.1795   -6.8299  -10.8149 C   0  0  0  0  0  0  0  0  0  0  0  0
   -1.3544   -4.9454  -15.5808 N   0  0  0  0  0  0  0  0  0  0  0  0
   -0.7210   -5.0814  -16.7598 C   0  0  0  0  0  0  0  0  0  0  0  0
   -1.0315   -4.2931  -17.8549 C   0  0  0  0  0  0  0  0  0  0  0  0
   -0.3954   -4.4133  -19.0772 C   0  0  0  0  0  0  0  0  0  0  0  0
   -0.6959   -3.6385  -20.1637 O   0  0  0  0  0  0  0  0  0  0  0  0
    0.2152   -2.9085  -20.9237 C   0  0  0  0  0  0  0  0  0  0  0  0
   -0.4658   -2.1163  -22.0223 C   0  0  0  0  0  0  0  0  0  0  0  0
   -1.1042   -0.9055  -21.3767 C   0  0  0  0  0  0  0  0  0  0  0  0
   -1.7280   -0.0170  -22.4323 C   0  0  0  0  0  0  0  0  0  0  0  0
   -0.6455    0.4023  -23.3259 N   0  0  0  0  0  0  0  0  0  0  0  0
    0.6493   -0.1743  -23.1077 C   0  0  0  0  0  0  0  0  0  0  0  0
    0.5988   -1.6791  -22.9937 C   0  0  0  0  0  0  0  0  0  0  0  0
   -0.9322    1.3409  -24.3415 C   0  0  0  0  0  0  0  0  0  0  0  0
    0.1590    1.8903  -25.1845 C   0  0  0  0  0  0  0  0  0  0  0  0
   -2.0976    1.7305  -24.5564 O   0  0  0  0  0  0  0  0  0  0  0  0
    0.6030   -5.3609  -19.2357 C   0  0  0  0  0  0  0  0  0  0  0  0
    0.9299   -6.1577  -18.1595 C   0  0  0  0  0  0  0  0  0  0  0  0
    1.9094   -7.1056  -18.2720 F   0  0  0  0  0  0  0  0  0  0  0  0
    0.2780   -6.0227  -16.9343 C   0  0  0  0  0  0  0  0  0  0  0  0
  1  2  2  0
  2  3  1  0
  3  4  1  0
  4  5  1  0
  5  6  1  0
  6  7  1  0
  7  8  1  0
  8  9  1  0
  9 10  1  0
 10 11  1  0
 11 12  1  0
  4 13  2  0
 13 14  1  0
 14 15  2  0
 15 16  1  0
 16 17  1  0
 17 18  1  0
 18 19  1  0
 19 20  1  0
 20 21  1  0
 21 22  1  0
 22 23  1  0
 23 24  1  0
 22 25  1  0
 25 26  1  0
 25 27  2  0
 16 28  2  0
 28 29  1  0
 29 30  1  0
 29 31  2  0
 31  2  1  0
 12  7  1  0
 31 14  1  0
 24 19  1  0
M  END
$$$$
