
     RDKit          3D

 31 34  0  0  0  0  0  0  0  0999 V2000
    1.3725   -7.6560  -15.3725 O   0  0  0  0  0  0  0  0  0  0  0  0
    0.9185   -6.6773  -16.0181 C   0  0  0  0  0  0  0  0  0  0  0  0
    1.3436   -6.3628  -17.2508 N   0  0  0  0  0  0  0  0  0  0  0  0
    0.8419   -5.2981  -17.9393 C   0  0  0  0  0  0  0  0  0  0  0  0
    1.3785   -5.0314  -19.2976 C   0  0  0  0  0  0  0  0  0  0  0  0
    0.1191   -4.5665  -20.4862 S   0  0  0  0  0  0  0  0  0  0  0  0
   -1.1827   -5.8128  -20.6342 C   0  0  0  0  0  0  0  0  0  0  0  0
   -2.1953   -5.2945  -21.6590 C   0  0  0  0  0  0  0  0  0  0  0  0
   -1.8726   -5.8232  -23.0398 C   0  0  0  0  0  0  0  0  0  0  0  0
   -0.5045   -5.8772  -23.2810 O   0  0  0  0  0  0  0  0  0  0  0  0
    0.1748   -6.7244  -22.4343 C   0  0  0  0  0  0  0  0  0  0  0  0
   -0.6392   -7.1167  -21.2127 C   0  0  0  0  0  0  0  0  0  0  0  0
   -0.0990   -4.5475  -17.3703 N   0  0  0  0  0  0  0  0  0  0  0  0
   -0.5499   -4.8325  -16.1353 C   0  0  0  0  0  0  0  0  0  0  0  0
   -1.5271   -4.0712  -15.5170 C   0  0  0  0  0  0  0  0  0  0  0  0
   -2.0073   -4.3432  -14.2487 C   0  0  0  0  0  0  0  0  0  0  0  0
   -2.9725   -3.5964  -13.6309 O   0  0  0  0  0  0  0  0  0  0  0  0
   -3.0198   -3.2832  -12.2743 C   0  0  0  0  0  0  0  0  0  0  0  0
   -2.4659   -1.9010  -11.9897 C   0  0  0  0  0  0  0  0  0  0  0  0
   -3.6189   -0.9249  -12.0802 C   0  0  0  0  0  0  0  0  0  0  0  0
   -3.1543    0.4696  -11.7163 C   0  0  0  0  0  0  0  0  0  0  0  0
   -2.6582    0.4044  -10.3395 N   0  0  0  0  0  0  0  0  0  0  0  0
   -2.6006   -0.8880   -9.7207 C   0  0  0  0  0  0  0  0  0  0  0  0
   -1.9119   -1.9133  -10.5893 C   0  0  0  0  0  0  0  0  0  0  0  0
   -2.2685    1.6037   -9.7035 C   0  0  0  0  0  0  0  0  0  0  0  0
   -1.6815    1.5733   -8.3406 C   0  0  0  0  0  0  0  0  0  0  0  0
   -2.4052    2.7102  -10.2630 O   0  0  0  0  0  0  0  0  0  0  0  0
   -1.5004   -5.4240  -13.5453 C   0  0  0  0  0  0  0  0  0  0  0  0
   -0.5265   -6.1971  -14.1402 C   0  0  0  0  0  0  0  0  0  0  0  0
    0.0012   -7.2735  -13.4817 F   0  0  0  0  0  0  0  0  0  0  0  0
   -0.0541   -5.9081  -15.4199 C   0  0  0  0  0  0  0  0  0  0  0  0
  1  2  2  0
  2  3  1  0
  3  4  1  0
  4  5  1  0
  5  6  1  0
  6  7  1  0
  7  8  1  0
  8  9  1  0
  9 10  1  0
 10 11  1  0
 11 12  1  0
  4 13  2  0
 13 14  1  0
 14 15  2  0
 15 16  1  0
 16 17  1  0
 17 18  1  0
 18 19  1  0
 19 20  1  0
 20 21  1  0
 21 22  1  0
 22 23  1  0
 23 24  1  0
 22 25  1  0
 25 26  1  0
 25 27  2  0
 16 28  2  0
 28 29  1  0
 29 30  1  0
 29 31  2  0
 31  2  1  0
 12  7  1  0
 31 14  1  0
 24 19  1  0
M  END
$$$$
