
     RDKit          3D

 31 34  0  0  0  0  0  0  0  0999 V2000
    1.8740   -7.2008  -16.5925 O   0  0  0  0  0  0  0  0  0  0  0  0
    0.8401   -6.5446  -16.8778 C   0  0  0  0  0  0  0  0  0  0  0  0
    0.6083   -6.0557  -18.1052 N   0  0  0  0  0  0  0  0  0  0  0  0
   -0.5178   -5.3456  -18.4001 C   0  0  0  0  0  0  0  0  0  0  0  0
   -0.6822   -4.8452  -19.7883 C   0  0  0  0  0  0  0  0  0  0  0  0
    0.6030   -3.7017  -20.2938 S   0  0  0  0  0  0  0  0  0  0  0  0
    0.0806   -1.9755  -20.1621 C   0  0  0  0  0  0  0  0  0  0  0  0
    1.0902   -1.1328  -20.9461 C   0  0  0  0  0  0  0  0  0  0  0  0
    0.6111   -0.9126  -22.3647 C   0  0  0  0  0  0  0  0  0  0  0  0
   -0.0175   -2.0347  -22.8927 O   0  0  0  0  0  0  0  0  0  0  0  0
   -1.1558   -2.4044  -22.2118 C   0  0  0  0  0  0  0  0  0  0  0  0
   -1.2657   -1.7496  -20.8451 C   0  0  0  0  0  0  0  0  0  0  0  0
   -1.4149   -5.1310  -17.4402 N   0  0  0  0  0  0  0  0  0  0  0  0
   -1.2165   -5.6062  -16.1973 C   0  0  0  0  0  0  0  0  0  0  0  0
   -2.1305   -5.3996  -15.1781 C   0  0  0  0  0  0  0  0  0  0  0  0
   -1.9497   -5.8774  -13.8927 C   0  0  0  0  0  0  0  0  0  0  0  0
   -2.8477   -5.6780  -12.8803 O   0  0  0  0  0  0  0  0  0  0  0  0
   -2.5380   -5.2961  -11.5769 C   0  0  0  0  0  0  0  0  0  0  0  0
   -3.7686   -5.2371  -10.6935 C   0  0  0  0  0  0  0  0  0  0  0  0
   -4.2530   -6.6577  -10.4984 C   0  0  0  0  0  0  0  0  0  0  0  0
   -5.4312   -6.6833   -9.5478 C   0  0  0  0  0  0  0  0  0  0  0  0
   -4.9594   -6.1341   -8.2743 N   0  0  0  0  0  0  0  0  0  0  0  0
   -3.6251   -5.6097   -8.2372 C   0  0  0  0  0  0  0  0  0  0  0  0
   -3.3506   -4.6507   -9.3708 C   0  0  0  0  0  0  0  0  0  0  0  0
   -5.8335   -6.1511   -7.1651 C   0  0  0  0  0  0  0  0  0  0  0  0
   -5.5419   -5.3237   -5.9678 C   0  0  0  0  0  0  0  0  0  0  0  0
   -6.8639   -6.8541   -7.1603 O   0  0  0  0  0  0  0  0  0  0  0  0
   -0.8069   -6.5993  -13.5883 C   0  0  0  0  0  0  0  0  0  0  0  0
    0.1179   -6.8180  -14.5868 C   0  0  0  0  0  0  0  0  0  0  0  0
    1.2597   -7.5257  -14.3300 F   0  0  0  0  0  0  0  0  0  0  0  0
   -0.0808   -6.3288  -15.8773 C   0  0  0  0  0  0  0  0  0  0  0  0
  1  2  2  0
  2  3  1  0
  3  4  1  0
  4  5  1  0
  5  6  1  0
  6  7  1  0
  7  8  1  0
  8  9  1  0
  9 10  1  0
 10 11  1  0
 11 12  1  0
  4 13  2  0
 13 14  1  0
 14 15  2  0
 15 16  1  0
 16 17  1  0
 17 18  1  0
 18 19  1  0
 19 20  1  0
 20 21  1  0
 21 22  1  0
 22 23  1  0
 23 24  1  0
 22 25  1  0
 25 26  1  0
 25 27  2  0
 16 28  2  0
 28 29  1  0
 29 30  1  0
 29 31  2  0
 31  2  1  0
 12  7  1  0
 31 14  1  0
 24 19  1  0
M  END
$$$$
