
     RDKit          3D

 31 34  0  0  0  0  0  0  0  0999 V2000
    1.2291   -7.7364  -16.0581 O   0  0  0  0  0  0  0  0  0  0  0  0
    0.3486   -6.8588  -15.8704 C   0  0  0  0  0  0  0  0  0  0  0  0
   -0.3181   -6.7378  -14.7127 N   0  0  0  0  0  0  0  0  0  0  0  0
   -1.2708   -5.7808  -14.5233 C   0  0  0  0  0  0  0  0  0  0  0  0
   -1.9539   -5.7289  -13.2061 C   0  0  0  0  0  0  0  0  0  0  0  0
   -2.2055   -7.3426  -12.4662 S   0  0  0  0  0  0  0  0  0  0  0  0
   -3.9568   -7.7311  -12.2387 C   0  0  0  0  0  0  0  0  0  0  0  0
   -4.0775   -9.2547  -12.1479 C   0  0  0  0  0  0  0  0  0  0  0  0
   -4.0430   -9.7058  -10.7037 C   0  0  0  0  0  0  0  0  0  0  0  0
   -3.1496   -8.9655   -9.9378 O   0  0  0  0  0  0  0  0  0  0  0  0
   -3.4628   -7.6269   -9.8598 C   0  0  0  0  0  0  0  0  0  0  0  0
   -4.4756   -7.1950  -10.9069 C   0  0  0  0  0  0  0  0  0  0  0  0
   -1.5479   -4.9407  -15.5182 N   0  0  0  0  0  0  0  0  0  0  0  0
   -0.8997   -5.0319  -16.6935 C   0  0  0  0  0  0  0  0  0  0  0  0
   -1.1654   -4.1734  -17.7467 C   0  0  0  0  0  0  0  0  0  0  0  0
   -0.5132   -4.2465  -18.9643 C   0  0  0  0  0  0  0  0  0  0  0  0
   -0.7695   -3.4022  -20.0095 O   0  0  0  0  0  0  0  0  0  0  0  0
   -0.1396   -3.4253  -21.2519 C   0  0  0  0  0  0  0  0  0  0  0  0
   -0.6627   -2.3429  -22.1754 C   0  0  0  0  0  0  0  0  0  0  0  0
   -0.8581   -1.0943  -21.3427 C   0  0  0  0  0  0  0  0  0  0  0  0
   -1.2947    0.0585  -22.2219 C   0  0  0  0  0  0  0  0  0  0  0  0
   -0.2272    0.2706  -23.2025 N   0  0  0  0  0  0  0  0  0  0  0  0
    0.8593   -0.6654  -23.2060 C   0  0  0  0  0  0  0  0  0  0  0  0
    0.3855   -2.0989  -23.2288 C   0  0  0  0  0  0  0  0  0  0  0  0
   -0.3244    1.3727  -24.0804 C   0  0  0  0  0  0  0  0  0  0  0  0
   -1.2570    2.4884  -23.7827 C   0  0  0  0  0  0  0  0  0  0  0  0
    0.3628    1.4387  -25.1193 O   0  0  0  0  0  0  0  0  0  0  0  0
    0.4556   -5.2172  -19.1613 C   0  0  0  0  0  0  0  0  0  0  0  0
    0.7377   -6.0838  -18.1271 C   0  0  0  0  0  0  0  0  0  0  0  0
    1.6870   -7.0568  -18.2786 F   0  0  0  0  0  0  0  0  0  0  0  0
    0.0702   -5.9955  -16.9061 C   0  0  0  0  0  0  0  0  0  0  0  0
  1  2  2  0
  2  3  1  0
  3  4  1  0
  4  5  1  0
  5  6  1  0
  6  7  1  0
  7  8  1  0
  8  9  1  0
  9 10  1  0
 10 11  1  0
 11 12  1  0
  4 13  2  0
 13 14  1  0
 14 15  2  0
 15 16  1  0
 16 17  1  0
 17 18  1  0
 18 19  1  0
 19 20  1  0
 20 21  1  0
 21 22  1  0
 22 23  1  0
 23 24  1  0
 22 25  1  0
 25 26  1  0
 25 27  2  0
 16 28  2  0
 28 29  1  0
 29 30  1  0
 29 31  2  0
 31  2  1  0
 12  7  1  0
 31 14  1  0
 24 19  1  0
M  END
$$$$
