
     RDKit          3D

 31 34  0  0  0  0  0  0  0  0999 V2000
    1.4970   -7.5322  -17.1029 O   0  0  0  0  0  0  0  0  0  0  0  0
    0.6376   -6.6216  -17.2163 C   0  0  0  0  0  0  0  0  0  0  0  0
    0.4216   -5.9689  -18.3681 N   0  0  0  0  0  0  0  0  0  0  0  0
   -0.5143   -4.9831  -18.4764 C   0  0  0  0  0  0  0  0  0  0  0  0
   -0.6775   -4.3193  -19.7943 C   0  0  0  0  0  0  0  0  0  0  0  0
    0.8188   -4.3117  -20.7823 S   0  0  0  0  0  0  0  0  0  0  0  0
    1.8060   -2.8184  -20.5266 C   0  0  0  0  0  0  0  0  0  0  0  0
    3.0425   -2.9309  -21.4225 C   0  0  0  0  0  0  0  0  0  0  0  0
    2.8009   -2.2468  -22.7507 C   0  0  0  0  0  0  0  0  0  0  0  0
    1.5040   -2.4336  -23.2155 O   0  0  0  0  0  0  0  0  0  0  0  0
    0.5374   -1.9050  -22.3895 C   0  0  0  0  0  0  0  0  0  0  0  0
    1.0622   -1.5734  -21.0026 C   0  0  0  0  0  0  0  0  0  0  0  0
   -1.2358   -4.6584  -17.4058 N   0  0  0  0  0  0  0  0  0  0  0  0
   -1.0470   -5.2912  -16.2337 C   0  0  0  0  0  0  0  0  0  0  0  0
   -1.7813   -4.9762  -15.1030 C   0  0  0  0  0  0  0  0  0  0  0  0
   -1.6062   -5.6116  -13.8870 C   0  0  0  0  0  0  0  0  0  0  0  0
   -2.3275   -5.3066  -12.7654 O   0  0  0  0  0  0  0  0  0  0  0  0
   -2.7453   -4.0337  -12.3837 C   0  0  0  0  0  0  0  0  0  0  0  0
   -2.8934   -3.9103  -10.8800 C   0  0  0  0  0  0  0  0  0  0  0  0
   -1.5063   -3.9985  -10.2809 C   0  0  0  0  0  0  0  0  0  0  0  0
   -1.5690   -3.7909   -8.7824 C   0  0  0  0  0  0  0  0  0  0  0  0
   -2.1267   -2.4541   -8.5635 N   0  0  0  0  0  0  0  0  0  0  0  0
   -2.5804   -1.7327   -9.7169 C   0  0  0  0  0  0  0  0  0  0  0  0
   -3.4923   -2.5589  -10.5920 C   0  0  0  0  0  0  0  0  0  0  0  0
   -2.1861   -1.9538   -7.2440 C   0  0  0  0  0  0  0  0  0  0  0  0
   -2.8417   -0.6518   -6.9646 C   0  0  0  0  0  0  0  0  0  0  0  0
   -1.6947   -2.5850   -6.2869 O   0  0  0  0  0  0  0  0  0  0  0  0
   -0.6564   -6.6139  -13.7722 C   0  0  0  0  0  0  0  0  0  0  0  0
    0.0872   -6.9453  -14.8845 C   0  0  0  0  0  0  0  0  0  0  0  0
    1.0352   -7.9288  -14.8157 F   0  0  0  0  0  0  0  0  0  0  0  0
   -0.1028   -6.2940  -16.1027 C   0  0  0  0  0  0  0  0  0  0  0  0
  1  2  2  0
  2  3  1  0
  3  4  1  0
  4  5  1  0
  5  6  1  0
  6  7  1  0
  7  8  1  0
  8  9  1  0
  9 10  1  0
 10 11  1  0
 11 12  1  0
  4 13  2  0
 13 14  1  0
 14 15  2  0
 15 16  1  0
 16 17  1  0
 17 18  1  0
 18 19  1  0
 19 20  1  0
 20 21  1  0
 21 22  1  0
 22 23  1  0
 23 24  1  0
 22 25  1  0
 25 26  1  0
 25 27  2  0
 16 28  2  0
 28 29  1  0
 29 30  1  0
 29 31  2  0
 31  2  1  0
 12  7  1  0
 31 14  1  0
 24 19  1  0
M  END
$$$$
