
     RDKit          3D

 31 34  0  0  0  0  0  0  0  0999 V2000
    1.7464   -6.6383  -16.8684 O   0  0  0  0  0  0  0  0  0  0  0  0
    0.8045   -5.8080  -16.8038 C   0  0  0  0  0  0  0  0  0  0  0  0
    0.6207   -4.8483  -17.7228 N   0  0  0  0  0  0  0  0  0  0  0  0
   -0.4056   -3.9543  -17.6397 C   0  0  0  0  0  0  0  0  0  0  0  0
   -0.5236   -2.9281  -18.7062 C   0  0  0  0  0  0  0  0  0  0  0  0
    0.6202   -3.1732  -20.0651 S   0  0  0  0  0  0  0  0  0  0  0  0
   -0.1841   -3.8742  -21.5251 C   0  0  0  0  0  0  0  0  0  0  0  0
   -1.2065   -2.8473  -22.0193 C   0  0  0  0  0  0  0  0  0  0  0  0
   -0.5978   -1.9607  -23.0840 C   0  0  0  0  0  0  0  0  0  0  0  0
    0.7298   -1.6459  -22.8170 O   0  0  0  0  0  0  0  0  0  0  0  0
    1.5631   -2.7416  -22.7816 C   0  0  0  0  0  0  0  0  0  0  0  0
    0.8075   -4.0553  -22.6714 C   0  0  0  0  0  0  0  0  0  0  0  0
   -1.2512   -4.0366  -16.6148 N   0  0  0  0  0  0  0  0  0  0  0  0
   -1.0984   -4.9859  -15.6739 C   0  0  0  0  0  0  0  0  0  0  0  0
   -1.9608   -5.0971  -14.5966 C   0  0  0  0  0  0  0  0  0  0  0  0
   -1.8252   -6.0637  -13.6166 C   0  0  0  0  0  0  0  0  0  0  0  0
   -2.6729   -6.1806  -12.5494 O   0  0  0  0  0  0  0  0  0  0  0  0
   -2.5643   -7.1103  -11.5177 C   0  0  0  0  0  0  0  0  0  0  0  0
   -3.2343   -6.6296  -10.2456 C   0  0  0  0  0  0  0  0  0  0  0  0
   -4.2862   -5.6171  -10.6439 C   0  0  0  0  0  0  0  0  0  0  0  0
   -5.0607   -5.1598   -9.4259 C   0  0  0  0  0  0  0  0  0  0  0  0
   -5.6987   -6.3503   -8.8587 N   0  0  0  0  0  0  0  0  0  0  0  0
   -5.3766   -7.6158   -9.4515 C   0  0  0  0  0  0  0  0  0  0  0  0
   -3.8880   -7.8219   -9.5981 C   0  0  0  0  0  0  0  0  0  0  0  0
   -6.5862   -6.1891   -7.7719 C   0  0  0  0  0  0  0  0  0  0  0  0
   -6.9496   -7.3505   -6.9220 C   0  0  0  0  0  0  0  0  0  0  0  0
   -7.0843   -5.0786   -7.4987 O   0  0  0  0  0  0  0  0  0  0  0  0
   -0.7838   -6.9742  -13.6968 C   0  0  0  0  0  0  0  0  0  0  0  0
    0.0881   -6.8835  -14.7605 C   0  0  0  0  0  0  0  0  0  0  0  0
    1.1297   -7.7621  -14.8788 F   0  0  0  0  0  0  0  0  0  0  0  0
   -0.0639   -5.9024  -15.7397 C   0  0  0  0  0  0  0  0  0  0  0  0
  1  2  2  0
  2  3  1  0
  3  4  1  0
  4  5  1  0
  5  6  1  0
  6  7  1  0
  7  8  1  0
  8  9  1  0
  9 10  1  0
 10 11  1  0
 11 12  1  0
  4 13  2  0
 13 14  1  0
 14 15  2  0
 15 16  1  0
 16 17  1  0
 17 18  1  0
 18 19  1  0
 19 20  1  0
 20 21  1  0
 21 22  1  0
 22 23  1  0
 23 24  1  0
 22 25  1  0
 25 26  1  0
 25 27  2  0
 16 28  2  0
 28 29  1  0
 29 30  1  0
 29 31  2  0
 31  2  1  0
 12  7  1  0
 31 14  1  0
 24 19  1  0
M  END
$$$$
