
     RDKit          3D

 31 34  0  0  0  0  0  0  0  0999 V2000
    1.3874   -7.6760  -16.7265 O   0  0  0  0  0  0  0  0  0  0  0  0
    0.7798   -6.6120  -17.0084 C   0  0  0  0  0  0  0  0  0  0  0  0
    0.9256   -5.9847  -18.1850 N   0  0  0  0  0  0  0  0  0  0  0  0
    0.2600   -4.8310  -18.4770 C   0  0  0  0  0  0  0  0  0  0  0  0
    0.4894   -4.2117  -19.8067 C   0  0  0  0  0  0  0  0  0  0  0  0
   -0.3248   -2.6270  -20.0084 S   0  0  0  0  0  0  0  0  0  0  0  0
   -1.7309   -2.7139  -21.1422 C   0  0  0  0  0  0  0  0  0  0  0  0
   -2.2253   -1.2821  -21.3654 C   0  0  0  0  0  0  0  0  0  0  0  0
   -1.5833   -0.6839  -22.5984 C   0  0  0  0  0  0  0  0  0  0  0  0
   -0.2526   -1.0609  -22.7397 O   0  0  0  0  0  0  0  0  0  0  0  0
   -0.0743   -2.4171  -22.8977 C   0  0  0  0  0  0  0  0  0  0  0  0
   -1.3046   -3.2232  -22.5166 C   0  0  0  0  0  0  0  0  0  0  0  0
   -0.5599   -4.3111  -17.5660 N   0  0  0  0  0  0  0  0  0  0  0  0
   -0.7313   -4.9124  -16.3748 C   0  0  0  0  0  0  0  0  0  0  0  0
   -1.5765   -4.3966  -15.4072 C   0  0  0  0  0  0  0  0  0  0  0  0
   -1.7697   -4.9955  -14.1754 C   0  0  0  0  0  0  0  0  0  0  0  0
   -2.6030   -4.4926  -13.2142 O   0  0  0  0  0  0  0  0  0  0  0  0
   -2.7659   -5.0001  -11.9272 C   0  0  0  0  0  0  0  0  0  0  0  0
   -2.9949   -3.9022  -10.9072 C   0  0  0  0  0  0  0  0  0  0  0  0
   -2.6952   -4.4839   -9.5425 C   0  0  0  0  0  0  0  0  0  0  0  0
   -2.8158   -3.4131   -8.4788 C   0  0  0  0  0  0  0  0  0  0  0  0
   -1.8351   -2.3762   -8.8094 N   0  0  0  0  0  0  0  0  0  0  0  0
   -1.1163   -2.5185  -10.0420 C   0  0  0  0  0  0  0  0  0  0  0  0
   -2.0291   -2.7883  -11.2142 C   0  0  0  0  0  0  0  0  0  0  0  0
   -1.6527   -1.3055   -7.9065 C   0  0  0  0  0  0  0  0  0  0  0  0
   -0.9938   -0.0525   -8.3527 C   0  0  0  0  0  0  0  0  0  0  0  0
   -2.0358   -1.3817   -6.7219 O   0  0  0  0  0  0  0  0  0  0  0  0
   -1.0954   -6.1678  -13.8743 C   0  0  0  0  0  0  0  0  0  0  0  0
   -0.2482   -6.7008  -14.8220 C   0  0  0  0  0  0  0  0  0  0  0  0
    0.4369   -7.8567  -14.5664 F   0  0  0  0  0  0  0  0  0  0  0  0
   -0.0654   -6.0835  -16.0588 C   0  0  0  0  0  0  0  0  0  0  0  0
  1  2  2  0
  2  3  1  0
  3  4  1  0
  4  5  1  0
  5  6  1  0
  6  7  1  0
  7  8  1  0
  8  9  1  0
  9 10  1  0
 10 11  1  0
 11 12  1  0
  4 13  2  0
 13 14  1  0
 14 15  2  0
 15 16  1  0
 16 17  1  0
 17 18  1  0
 18 19  1  0
 19 20  1  0
 20 21  1  0
 21 22  1  0
 22 23  1  0
 23 24  1  0
 22 25  1  0
 25 26  1  0
 25 27  2  0
 16 28  2  0
 28 29  1  0
 29 30  1  0
 29 31  2  0
 31  2  1  0
 12  7  1  0
 31 14  1  0
 24 19  1  0
M  END
$$$$
