
     RDKit          3D

 31 34  0  0  0  0  0  0  0  0999 V2000
    1.5120   -7.7392  -16.0791 O   0  0  0  0  0  0  0  0  0  0  0  0
    0.6283   -6.8763  -15.8441 C   0  0  0  0  0  0  0  0  0  0  0  0
   -0.0140   -6.7988  -14.6691 N   0  0  0  0  0  0  0  0  0  0  0  0
   -0.9706   -5.8573  -14.4284 C   0  0  0  0  0  0  0  0  0  0  0  0
   -1.6252   -5.8542  -13.0958 C   0  0  0  0  0  0  0  0  0  0  0  0
   -1.7764   -7.4862  -12.3688 S   0  0  0  0  0  0  0  0  0  0  0  0
   -3.4992   -8.0102  -12.2033 C   0  0  0  0  0  0  0  0  0  0  0  0
   -3.4899   -9.4933  -11.8234 C   0  0  0  0  0  0  0  0  0  0  0  0
   -3.5529   -9.6577  -10.3203 C   0  0  0  0  0  0  0  0  0  0  0  0
   -2.8073   -8.6949   -9.6495 O   0  0  0  0  0  0  0  0  0  0  0  0
   -3.2461   -7.4069   -9.8611 C   0  0  0  0  0  0  0  0  0  0  0  0
   -4.1891   -7.2913  -11.0469 C   0  0  0  0  0  0  0  0  0  0  0  0
   -1.2764   -4.9882  -15.3893 N   0  0  0  0  0  0  0  0  0  0  0  0
   -0.6532   -5.0355  -16.5806 C   0  0  0  0  0  0  0  0  0  0  0  0
   -0.9491   -4.1460  -17.5995 C   0  0  0  0  0  0  0  0  0  0  0  0
   -0.3230   -4.1738  -18.8325 C   0  0  0  0  0  0  0  0  0  0  0  0
   -0.6092   -3.2986  -19.8441 O   0  0  0  0  0  0  0  0  0  0  0  0
   -0.1768   -3.4059  -21.1640 C   0  0  0  0  0  0  0  0  0  0  0  0
   -0.7399   -2.3031  -22.0387 C   0  0  0  0  0  0  0  0  0  0  0  0
   -0.9163   -1.0796  -21.1655 C   0  0  0  0  0  0  0  0  0  0  0  0
   -1.3919    0.0930  -21.9970 C   0  0  0  0  0  0  0  0  0  0  0  0
   -0.3605    0.3412  -23.0073 N   0  0  0  0  0  0  0  0  0  0  0  0
    0.7325   -0.5847  -23.0740 C   0  0  0  0  0  0  0  0  0  0  0  0
    0.2694   -2.0212  -23.1203 C   0  0  0  0  0  0  0  0  0  0  0  0
   -0.4966    1.4661  -23.8505 C   0  0  0  0  0  0  0  0  0  0  0  0
   -1.4412    2.5560  -23.5000 C   0  0  0  0  0  0  0  0  0  0  0  0
    0.1657    1.5741  -24.9021 O   0  0  0  0  0  0  0  0  0  0  0  0
    0.6496   -5.1286  -19.0816 C   0  0  0  0  0  0  0  0  0  0  0  0
    0.9616   -6.0254  -18.0824 C   0  0  0  0  0  0  0  0  0  0  0  0
    1.9156   -6.9842  -18.2857 F   0  0  0  0  0  0  0  0  0  0  0  0
    0.3201   -5.9827  -16.8451 C   0  0  0  0  0  0  0  0  0  0  0  0
  1  2  2  0
  2  3  1  0
  3  4  1  0
  4  5  1  0
  5  6  1  0
  6  7  1  0
  7  8  1  0
  8  9  1  0
  9 10  1  0
 10 11  1  0
 11 12  1  0
  4 13  2  0
 13 14  1  0
 14 15  2  0
 15 16  1  0
 16 17  1  0
 17 18  1  0
 18 19  1  0
 19 20  1  0
 20 21  1  0
 21 22  1  0
 22 23  1  0
 23 24  1  0
 22 25  1  0
 25 26  1  0
 25 27  2  0
 16 28  2  0
 28 29  1  0
 29 30  1  0
 29 31  2  0
 31  2  1  0
 12  7  1  0
 31 14  1  0
 24 19  1  0
M  END
$$$$
