
     RDKit          3D

 31 34  0  0  0  0  0  0  0  0999 V2000
    1.3856   -7.9273  -15.7331 O   0  0  0  0  0  0  0  0  0  0  0  0
    0.9512   -6.9641  -16.4145 C   0  0  0  0  0  0  0  0  0  0  0  0
    1.3670   -6.7160  -17.6653 N   0  0  0  0  0  0  0  0  0  0  0  0
    0.8869   -5.6672  -18.3926 C   0  0  0  0  0  0  0  0  0  0  0  0
    1.4109   -5.4756  -19.7684 C   0  0  0  0  0  0  0  0  0  0  0  0
    1.3887   -3.7669  -20.3113 S   0  0  0  0  0  0  0  0  0  0  0  0
    0.3525   -3.5214  -21.7729 C   0  0  0  0  0  0  0  0  0  0  0  0
    0.4833   -2.0520  -22.1825 C   0  0  0  0  0  0  0  0  0  0  0  0
    1.5668   -1.8852  -23.2260 C   0  0  0  0  0  0  0  0  0  0  0  0
    2.6605   -2.7109  -22.9919 O   0  0  0  0  0  0  0  0  0  0  0  0
    2.3609   -4.0541  -23.0366 C   0  0  0  0  0  0  0  0  0  0  0  0
    0.8685   -4.3295  -22.9607 C   0  0  0  0  0  0  0  0  0  0  0  0
   -0.0228   -4.8647  -17.8441 N   0  0  0  0  0  0  0  0  0  0  0  0
   -0.4635   -5.0825  -16.5918 C   0  0  0  0  0  0  0  0  0  0  0  0
   -1.4085   -4.2660  -15.9940 C   0  0  0  0  0  0  0  0  0  0  0  0
   -1.8775   -4.4685  -14.7086 C   0  0  0  0  0  0  0  0  0  0  0  0
   -2.8109   -3.6669  -14.1109 O   0  0  0  0  0  0  0  0  0  0  0  0
   -2.7482   -2.2794  -14.0039 C   0  0  0  0  0  0  0  0  0  0  0  0
   -3.2697   -1.7874  -12.6681 C   0  0  0  0  0  0  0  0  0  0  0  0
   -2.1055   -1.1605  -11.9319 C   0  0  0  0  0  0  0  0  0  0  0  0
   -2.5747   -0.5636  -10.6218 C   0  0  0  0  0  0  0  0  0  0  0  0
   -3.5682    0.4600  -10.9550 N   0  0  0  0  0  0  0  0  0  0  0  0
   -3.9521    0.5819  -12.3314 C   0  0  0  0  0  0  0  0  0  0  0  0
   -4.3218   -0.7465  -12.9468 C   0  0  0  0  0  0  0  0  0  0  0  0
   -4.0876    1.2623   -9.9151 C   0  0  0  0  0  0  0  0  0  0  0  0
   -5.0866    2.3193  -10.2112 C   0  0  0  0  0  0  0  0  0  0  0  0
   -3.7254    1.1070   -8.7316 O   0  0  0  0  0  0  0  0  0  0  0  0
   -1.3925   -5.5329  -13.9659 C   0  0  0  0  0  0  0  0  0  0  0  0
   -0.4509   -6.3600  -14.5398 C   0  0  0  0  0  0  0  0  0  0  0  0
    0.0545   -7.4224  -13.8423 F   0  0  0  0  0  0  0  0  0  0  0  0
    0.0108   -6.1408  -15.8371 C   0  0  0  0  0  0  0  0  0  0  0  0
  1  2  2  0
  2  3  1  0
  3  4  1  0
  4  5  1  0
  5  6  1  0
  6  7  1  0
  7  8  1  0
  8  9  1  0
  9 10  1  0
 10 11  1  0
 11 12  1  0
  4 13  2  0
 13 14  1  0
 14 15  2  0
 15 16  1  0
 16 17  1  0
 17 18  1  0
 18 19  1  0
 19 20  1  0
 20 21  1  0
 21 22  1  0
 22 23  1  0
 23 24  1  0
 22 25  1  0
 25 26  1  0
 25 27  2  0
 16 28  2  0
 28 29  1  0
 29 30  1  0
 29 31  2  0
 31  2  1  0
 12  7  1  0
 31 14  1  0
 24 19  1  0
M  END
$$$$
