
     RDKit          3D

 31 34  0  0  0  0  0  0  0  0999 V2000
    1.6916   -7.8859  -16.1593 O   0  0  0  0  0  0  0  0  0  0  0  0
    0.9691   -6.9911  -16.6673 C   0  0  0  0  0  0  0  0  0  0  0  0
    1.0680   -6.6237  -17.9535 N   0  0  0  0  0  0  0  0  0  0  0  0
    0.2775   -5.6512  -18.4909 C   0  0  0  0  0  0  0  0  0  0  0  0
    0.4642   -5.3150  -19.9249 C   0  0  0  0  0  0  0  0  0  0  0  0
    0.6288   -3.5562  -20.2321 S   0  0  0  0  0  0  0  0  0  0  0  0
   -0.9377   -2.6734  -20.0407 C   0  0  0  0  0  0  0  0  0  0  0  0
   -0.6125   -1.1791  -19.9671 C   0  0  0  0  0  0  0  0  0  0  0  0
   -0.7064   -0.5461  -21.3385 C   0  0  0  0  0  0  0  0  0  0  0  0
   -0.2284   -1.3811  -22.3421 O   0  0  0  0  0  0  0  0  0  0  0  0
   -0.9354   -2.5558  -22.4698 C   0  0  0  0  0  0  0  0  0  0  0  0
   -1.8244   -2.8436  -21.2715 C   0  0  0  0  0  0  0  0  0  0  0  0
   -0.6203   -5.0479  -17.7148 N   0  0  0  0  0  0  0  0  0  0  0  0
   -0.7481   -5.3900  -16.4200 C   0  0  0  0  0  0  0  0  0  0  0  0
   -1.6719   -4.7812  -15.5878 C   0  0  0  0  0  0  0  0  0  0  0  0
   -1.8227   -5.1147  -14.2539 C   0  0  0  0  0  0  0  0  0  0  0  0
   -2.7329   -4.5184  -13.4251 O   0  0  0  0  0  0  0  0  0  0  0  0
   -2.7929   -4.6601  -12.0406 C   0  0  0  0  0  0  0  0  0  0  0  0
   -2.3411   -3.4051  -11.3200 C   0  0  0  0  0  0  0  0  0  0  0  0
   -3.5591   -2.8049  -10.6515 C   0  0  0  0  0  0  0  0  0  0  0  0
   -3.1640   -1.5930   -9.8343 C   0  0  0  0  0  0  0  0  0  0  0  0
   -2.2128   -2.0574   -8.8216 N   0  0  0  0  0  0  0  0  0  0  0  0
   -1.7903   -3.4259   -8.8933 C   0  0  0  0  0  0  0  0  0  0  0  0
   -1.3341   -3.8168  -10.2786 C   0  0  0  0  0  0  0  0  0  0  0  0
   -1.7691   -1.1430   -7.8408 C   0  0  0  0  0  0  0  0  0  0  0  0
   -2.4763    0.1469   -7.6437 C   0  0  0  0  0  0  0  0  0  0  0  0
   -0.7812   -1.3910   -7.1206 O   0  0  0  0  0  0  0  0  0  0  0  0
   -1.0215   -6.1022  -13.7036 C   0  0  0  0  0  0  0  0  0  0  0  0
   -0.0941   -6.7230  -14.5125 C   0  0  0  0  0  0  0  0  0  0  0  0
    0.7169   -7.7031  -14.0103 F   0  0  0  0  0  0  0  0  0  0  0  0
    0.0442   -6.3739  -15.8554 C   0  0  0  0  0  0  0  0  0  0  0  0
  1  2  2  0
  2  3  1  0
  3  4  1  0
  4  5  1  0
  5  6  1  0
  6  7  1  0
  7  8  1  0
  8  9  1  0
  9 10  1  0
 10 11  1  0
 11 12  1  0
  4 13  2  0
 13 14  1  0
 14 15  2  0
 15 16  1  0
 16 17  1  0
 17 18  1  0
 18 19  1  0
 19 20  1  0
 20 21  1  0
 21 22  1  0
 22 23  1  0
 23 24  1  0
 22 25  1  0
 25 26  1  0
 25 27  2  0
 16 28  2  0
 28 29  1  0
 29 30  1  0
 29 31  2  0
 31  2  1  0
 12  7  1  0
 31 14  1  0
 24 19  1  0
M  END
$$$$
