
     RDKit          3D

 31 34  0  0  0  0  0  0  0  0999 V2000
    1.8468   -6.8397  -16.5006 O   0  0  0  0  0  0  0  0  0  0  0  0
    0.8015   -6.1735  -16.7114 C   0  0  0  0  0  0  0  0  0  0  0  0
    0.5855   -5.5074  -17.8554 N   0  0  0  0  0  0  0  0  0  0  0  0
   -0.5534   -4.7888  -18.0701 C   0  0  0  0  0  0  0  0  0  0  0  0
   -0.6986   -4.0850  -19.3692 C   0  0  0  0  0  0  0  0  0  0  0  0
    0.8675   -3.6690  -20.1369 S   0  0  0  0  0  0  0  0  0  0  0  0
    1.2333   -1.9006  -20.0425 C   0  0  0  0  0  0  0  0  0  0  0  0
    2.3746   -1.6184  -21.0233 C   0  0  0  0  0  0  0  0  0  0  0  0
    1.8270   -1.1828  -22.3652 C   0  0  0  0  0  0  0  0  0  0  0  0
    0.6735   -1.8743  -22.7174 O   0  0  0  0  0  0  0  0  0  0  0  0
   -0.3779   -1.6771  -21.8503 C   0  0  0  0  0  0  0  0  0  0  0  0
    0.0533   -1.0633  -20.5288 C   0  0  0  0  0  0  0  0  0  0  0  0
   -1.4794   -4.7471  -17.1145 N   0  0  0  0  0  0  0  0  0  0  0  0
   -1.2974   -5.4027  -15.9539 C   0  0  0  0  0  0  0  0  0  0  0  0
   -2.2414   -5.3784  -14.9415 C   0  0  0  0  0  0  0  0  0  0  0  0
   -2.0781   -6.0436  -13.7398 C   0  0  0  0  0  0  0  0  0  0  0  0
   -3.0058   -6.0249  -12.7347 O   0  0  0  0  0  0  0  0  0  0  0  0
   -2.7511   -5.7514  -11.3927 C   0  0  0  0  0  0  0  0  0  0  0  0
   -4.0127   -5.7969  -10.5533 C   0  0  0  0  0  0  0  0  0  0  0  0
   -4.2222   -7.2350  -10.1306 C   0  0  0  0  0  0  0  0  0  0  0  0
   -5.4195   -7.3409   -9.2097 C   0  0  0  0  0  0  0  0  0  0  0  0
   -5.1274   -6.5106   -8.0387 N   0  0  0  0  0  0  0  0  0  0  0  0
   -3.9234   -5.7320   -8.0672 C   0  0  0  0  0  0  0  0  0  0  0  0
   -3.7830   -4.9334   -9.3410 C   0  0  0  0  0  0  0  0  0  0  0  0
   -6.0363   -6.5220   -6.9578 C   0  0  0  0  0  0  0  0  0  0  0  0
   -5.9340   -5.5053   -5.8813 C   0  0  0  0  0  0  0  0  0  0  0  0
   -6.9407   -7.3775   -6.8781 O   0  0  0  0  0  0  0  0  0  0  0  0
   -0.9225   -6.7750  -13.5172 C   0  0  0  0  0  0  0  0  0  0  0  0
    0.0322   -6.8141  -14.5107 C   0  0  0  0  0  0  0  0  0  0  0  0
    1.1876   -7.5242  -14.3330 F   0  0  0  0  0  0  0  0  0  0  0  0
   -0.1492   -6.1374  -15.7162 C   0  0  0  0  0  0  0  0  0  0  0  0
  1  2  2  0
  2  3  1  0
  3  4  1  0
  4  5  1  0
  5  6  1  0
  6  7  1  0
  7  8  1  0
  8  9  1  0
  9 10  1  0
 10 11  1  0
 11 12  1  0
  4 13  2  0
 13 14  1  0
 14 15  2  0
 15 16  1  0
 16 17  1  0
 17 18  1  0
 18 19  1  0
 19 20  1  0
 20 21  1  0
 21 22  1  0
 22 23  1  0
 23 24  1  0
 22 25  1  0
 25 26  1  0
 25 27  2  0
 16 28  2  0
 28 29  1  0
 29 30  1  0
 29 31  2  0
 31  2  1  0
 12  7  1  0
 31 14  1  0
 24 19  1  0
M  END
$$$$
