
     RDKit          3D

 31 34  0  0  0  0  0  0  0  0999 V2000
    1.8455   -7.4084  -16.6321 O   0  0  0  0  0  0  0  0  0  0  0  0
    1.0794   -6.4157  -16.7241 C   0  0  0  0  0  0  0  0  0  0  0  0
    1.1679   -5.5224  -17.7208 N   0  0  0  0  0  0  0  0  0  0  0  0
    0.3299   -4.4502  -17.8077 C   0  0  0  0  0  0  0  0  0  0  0  0
    0.5089   -3.5169  -18.9484 C   0  0  0  0  0  0  0  0  0  0  0  0
   -1.0317   -2.8403  -19.5681 S   0  0  0  0  0  0  0  0  0  0  0  0
   -1.4501   -3.4706  -21.2106 C   0  0  0  0  0  0  0  0  0  0  0  0
   -2.6919   -2.7123  -21.6868 C   0  0  0  0  0  0  0  0  0  0  0  0
   -2.2955   -1.5117  -22.5185 C   0  0  0  0  0  0  0  0  0  0  0  0
   -1.1581   -0.8795  -22.0293 O   0  0  0  0  0  0  0  0  0  0  0  0
   -0.0342   -1.6750  -22.0384 C   0  0  0  0  0  0  0  0  0  0  0  0
   -0.3548   -3.1487  -22.2239 C   0  0  0  0  0  0  0  0  0  0  0  0
   -0.6049   -4.2849  -16.8744 N   0  0  0  0  0  0  0  0  0  0  0  0
   -0.7236   -5.1605  -15.8599 C   0  0  0  0  0  0  0  0  0  0  0  0
   -1.6852   -5.0158  -14.8744 C   0  0  0  0  0  0  0  0  0  0  0  0
   -1.8276   -5.9017  -13.8217 C   0  0  0  0  0  0  0  0  0  0  0  0
   -2.7750   -5.7662  -12.8443 O   0  0  0  0  0  0  0  0  0  0  0  0
   -2.5424   -5.3634  -11.5312 C   0  0  0  0  0  0  0  0  0  0  0  0
   -3.8007   -5.4186  -10.6876 C   0  0  0  0  0  0  0  0  0  0  0  0
   -4.2189   -6.8702  -10.5947 C   0  0  0  0  0  0  0  0  0  0  0  0
   -5.4228   -7.0113   -9.6873 C   0  0  0  0  0  0  0  0  0  0  0  0
   -5.0182   -6.5196   -8.3680 N   0  0  0  0  0  0  0  0  0  0  0  0
   -3.7137   -5.9347   -8.2548 C   0  0  0  0  0  0  0  0  0  0  0  0
   -3.4533   -4.8954   -9.3188 C   0  0  0  0  0  0  0  0  0  0  0  0
   -5.9238   -6.6472   -7.2917 C   0  0  0  0  0  0  0  0  0  0  0  0
   -5.6885   -5.9140   -6.0229 C   0  0  0  0  0  0  0  0  0  0  0  0
   -6.9356   -7.3718   -7.3761 O   0  0  0  0  0  0  0  0  0  0  0  0
   -0.9784   -6.9925  -13.7293 C   0  0  0  0  0  0  0  0  0  0  0  0
   -0.0128   -7.1578  -14.6989 C   0  0  0  0  0  0  0  0  0  0  0  0
    0.8463   -8.2208  -14.6463 F   0  0  0  0  0  0  0  0  0  0  0  0
    0.1165   -6.2547  -15.7534 C   0  0  0  0  0  0  0  0  0  0  0  0
  1  2  2  0
  2  3  1  0
  3  4  1  0
  4  5  1  0
  5  6  1  0
  6  7  1  0
  7  8  1  0
  8  9  1  0
  9 10  1  0
 10 11  1  0
 11 12  1  0
  4 13  2  0
 13 14  1  0
 14 15  2  0
 15 16  1  0
 16 17  1  0
 17 18  1  0
 18 19  1  0
 19 20  1  0
 20 21  1  0
 21 22  1  0
 22 23  1  0
 23 24  1  0
 22 25  1  0
 25 26  1  0
 25 27  2  0
 16 28  2  0
 28 29  1  0
 29 30  1  0
 29 31  2  0
 31  2  1  0
 12  7  1  0
 31 14  1  0
 24 19  1  0
M  END
$$$$
