
     RDKit          3D

 31 34  0  0  0  0  0  0  0  0999 V2000
    1.5652   -7.6857  -15.8407 O   0  0  0  0  0  0  0  0  0  0  0  0
    0.9216   -6.8925  -16.5737 C   0  0  0  0  0  0  0  0  0  0  0  0
    1.1566   -6.7688  -17.8886 N   0  0  0  0  0  0  0  0  0  0  0  0
    0.4503   -5.9041  -18.6713 C   0  0  0  0  0  0  0  0  0  0  0  0
    0.7862   -5.8391  -20.1161 C   0  0  0  0  0  0  0  0  0  0  0  0
    1.3535   -4.2232  -20.6471 S   0  0  0  0  0  0  0  0  0  0  0  0
    0.2622   -2.8926  -20.0916 C   0  0  0  0  0  0  0  0  0  0  0  0
    0.9737   -1.5685  -20.3822 C   0  0  0  0  0  0  0  0  0  0  0  0
    0.5498   -1.0211  -21.7280 C   0  0  0  0  0  0  0  0  0  0  0  0
    0.3838   -2.0213  -22.6792 O   0  0  0  0  0  0  0  0  0  0  0  0
   -0.6035   -2.9280  -22.3639 C   0  0  0  0  0  0  0  0  0  0  0  0
   -1.0280   -2.8565  -20.9067 C   0  0  0  0  0  0  0  0  0  0  0  0
   -0.5018   -5.1595  -18.1133 N   0  0  0  0  0  0  0  0  0  0  0  0
   -0.7656   -5.2565  -16.7977 C   0  0  0  0  0  0  0  0  0  0  0  0
   -1.7490   -4.4960  -16.1883 C   0  0  0  0  0  0  0  0  0  0  0  0
   -2.0392   -4.5771  -14.8384 C   0  0  0  0  0  0  0  0  0  0  0  0
   -3.0092   -3.8296  -14.2288 O   0  0  0  0  0  0  0  0  0  0  0  0
   -2.8561   -3.0910  -13.0576 C   0  0  0  0  0  0  0  0  0  0  0  0
   -2.6223   -1.6199  -13.3389 C   0  0  0  0  0  0  0  0  0  0  0  0
   -3.9765   -0.9818  -13.5616 C   0  0  0  0  0  0  0  0  0  0  0  0
   -3.8255    0.5118  -13.7591 C   0  0  0  0  0  0  0  0  0  0  0  0
   -3.2159    1.0407  -12.5365 N   0  0  0  0  0  0  0  0  0  0  0  0
   -2.8040    0.0926  -11.5425 C   0  0  0  0  0  0  0  0  0  0  0  0
   -1.9672   -1.0231  -12.1213 C   0  0  0  0  0  0  0  0  0  0  0  0
   -3.0689    2.4392  -12.4044 C   0  0  0  0  0  0  0  0  0  0  0  0
   -3.7285    3.3566  -13.3669 C   0  0  0  0  0  0  0  0  0  0  0  0
   -2.3882    2.9373  -11.4855 O   0  0  0  0  0  0  0  0  0  0  0  0
   -1.3242   -5.4543  -14.0391 C   0  0  0  0  0  0  0  0  0  0  0  0
   -0.3398   -6.2223  -14.6231 C   0  0  0  0  0  0  0  0  0  0  0  0
    0.3900   -7.1014  -13.8712 F   0  0  0  0  0  0  0  0  0  0  0  0
   -0.0607   -6.1275  -15.9860 C   0  0  0  0  0  0  0  0  0  0  0  0
  1  2  2  0
  2  3  1  0
  3  4  1  0
  4  5  1  0
  5  6  1  0
  6  7  1  0
  7  8  1  0
  8  9  1  0
  9 10  1  0
 10 11  1  0
 11 12  1  0
  4 13  2  0
 13 14  1  0
 14 15  2  0
 15 16  1  0
 16 17  1  0
 17 18  1  0
 18 19  1  0
 19 20  1  0
 20 21  1  0
 21 22  1  0
 22 23  1  0
 23 24  1  0
 22 25  1  0
 25 26  1  0
 25 27  2  0
 16 28  2  0
 28 29  1  0
 29 30  1  0
 29 31  2  0
 31  2  1  0
 12  7  1  0
 31 14  1  0
 24 19  1  0
M  END
$$$$
