
     RDKit          3D

 31 34  0  0  0  0  0  0  0  0999 V2000
    1.7113   -7.7428  -16.3748 O   0  0  0  0  0  0  0  0  0  0  0  0
    0.9931   -6.8568  -16.9039 C   0  0  0  0  0  0  0  0  0  0  0  0
    1.1207   -6.4928  -18.1886 N   0  0  0  0  0  0  0  0  0  0  0  0
    0.3345   -5.5299  -18.7491 C   0  0  0  0  0  0  0  0  0  0  0  0
    0.5538   -5.1967  -20.1792 C   0  0  0  0  0  0  0  0  0  0  0  0
    0.9280   -3.4661  -20.4617 S   0  0  0  0  0  0  0  0  0  0  0  0
   -0.2930   -2.3650  -19.7088 C   0  0  0  0  0  0  0  0  0  0  0  0
    0.0497   -0.9381  -20.1456 C   0  0  0  0  0  0  0  0  0  0  0  0
   -0.7341   -0.5582  -21.3833 C   0  0  0  0  0  0  0  0  0  0  0  0
   -0.8643   -1.6171  -22.2747 O   0  0  0  0  0  0  0  0  0  0  0  0
   -1.5552   -2.6921  -21.7616 C   0  0  0  0  0  0  0  0  0  0  0  0
   -1.6941   -2.6379  -20.2494 C   0  0  0  0  0  0  0  0  0  0  0  0
   -0.5882   -4.9326  -17.9979 N   0  0  0  0  0  0  0  0  0  0  0  0
   -0.7450   -5.2716  -16.7054 C   0  0  0  0  0  0  0  0  0  0  0  0
   -1.6952   -4.6689  -15.8988 C   0  0  0  0  0  0  0  0  0  0  0  0
   -1.8760   -4.9993  -14.5679 C   0  0  0  0  0  0  0  0  0  0  0  0
   -2.8125   -4.4091  -13.7642 O   0  0  0  0  0  0  0  0  0  0  0  0
   -2.9471   -4.5991  -12.3908 C   0  0  0  0  0  0  0  0  0  0  0  0
   -2.1476   -3.5864  -11.5950 C   0  0  0  0  0  0  0  0  0  0  0  0
   -3.0958   -2.4771  -11.1938 C   0  0  0  0  0  0  0  0  0  0  0  0
   -2.3828   -1.4710  -10.3151 C   0  0  0  0  0  0  0  0  0  0  0  0
   -1.9261   -2.1958   -9.1268 N   0  0  0  0  0  0  0  0  0  0  0  0
   -2.1202   -3.6165   -9.1068 C   0  0  0  0  0  0  0  0  0  0  0  0
   -1.6245   -4.2842  -10.3672 C   0  0  0  0  0  0  0  0  0  0  0  0
   -1.3269   -1.4647   -8.0774 C   0  0  0  0  0  0  0  0  0  0  0  0
   -0.8494   -2.1603   -6.8563 C   0  0  0  0  0  0  0  0  0  0  0  0
   -1.1838   -0.2275   -8.1462 O   0  0  0  0  0  0  0  0  0  0  0  0
   -1.0795   -5.9771  -13.9941 C   0  0  0  0  0  0  0  0  0  0  0  0
   -0.1262   -6.5916  -14.7774 C   0  0  0  0  0  0  0  0  0  0  0  0
    0.6814   -7.5622  -14.2515 F   0  0  0  0  0  0  0  0  0  0  0  0
    0.0423   -6.2458  -16.1177 C   0  0  0  0  0  0  0  0  0  0  0  0
  1  2  2  0
  2  3  1  0
  3  4  1  0
  4  5  1  0
  5  6  1  0
  6  7  1  0
  7  8  1  0
  8  9  1  0
  9 10  1  0
 10 11  1  0
 11 12  1  0
  4 13  2  0
 13 14  1  0
 14 15  2  0
 15 16  1  0
 16 17  1  0
 17 18  1  0
 18 19  1  0
 19 20  1  0
 20 21  1  0
 21 22  1  0
 22 23  1  0
 23 24  1  0
 22 25  1  0
 25 26  1  0
 25 27  2  0
 16 28  2  0
 28 29  1  0
 29 30  1  0
 29 31  2  0
 31  2  1  0
 12  7  1  0
 31 14  1  0
 24 19  1  0
M  END
$$$$
