
     RDKit          3D

 31 34  0  0  0  0  0  0  0  0999 V2000
    1.1252   -7.9456  -16.1953 O   0  0  0  0  0  0  0  0  0  0  0  0
    0.3172   -6.9954  -16.0370 C   0  0  0  0  0  0  0  0  0  0  0  0
   -0.4361   -6.8612  -14.9353 N   0  0  0  0  0  0  0  0  0  0  0  0
   -1.3085   -5.8252  -14.7774 C   0  0  0  0  0  0  0  0  0  0  0  0
   -2.0988   -5.7651  -13.5219 C   0  0  0  0  0  0  0  0  0  0  0  0
   -1.6300   -4.4102  -12.4452 S   0  0  0  0  0  0  0  0  0  0  0  0
   -2.3264   -4.5766  -10.7847 C   0  0  0  0  0  0  0  0  0  0  0  0
   -1.1963   -5.0388   -9.8609 C   0  0  0  0  0  0  0  0  0  0  0  0
   -0.5331   -3.8516   -9.1968 C   0  0  0  0  0  0  0  0  0  0  0  0
   -0.4206   -2.7603  -10.0508 O   0  0  0  0  0  0  0  0  0  0  0  0
   -1.6315   -2.2659  -10.4813 C   0  0  0  0  0  0  0  0  0  0  0  0
   -2.7828   -3.2270  -10.2367 C   0  0  0  0  0  0  0  0  0  0  0  0
   -1.4160   -4.9189  -15.7467 N   0  0  0  0  0  0  0  0  0  0  0  0
   -0.6765   -5.0209  -16.8660 C   0  0  0  0  0  0  0  0  0  0  0  0
   -0.7657   -4.0949  -17.8913 C   0  0  0  0  0  0  0  0  0  0  0  0
   -0.0169   -4.1774  -19.0514 C   0  0  0  0  0  0  0  0  0  0  0  0
   -0.0989   -3.2668  -20.0688 O   0  0  0  0  0  0  0  0  0  0  0  0
   -1.0237   -3.2865  -21.1104 C   0  0  0  0  0  0  0  0  0  0  0  0
   -0.6812   -2.2838  -22.1947 C   0  0  0  0  0  0  0  0  0  0  0  0
   -1.9764   -1.6397  -22.6396 C   0  0  0  0  0  0  0  0  0  0  0  0
   -1.6990   -0.5575  -23.6618 C   0  0  0  0  0  0  0  0  0  0  0  0
   -0.8439    0.4347  -23.0058 N   0  0  0  0  0  0  0  0  0  0  0  0
   -0.3800    0.1328  -21.6829 C   0  0  0  0  0  0  0  0  0  0  0  0
    0.2251   -1.2471  -21.5847 C   0  0  0  0  0  0  0  0  0  0  0  0
   -0.5268    1.6211  -23.7035 C   0  0  0  0  0  0  0  0  0  0  0  0
   -1.2861    2.0006  -24.9211 C   0  0  0  0  0  0  0  0  0  0  0  0
    0.3901    2.3751  -23.3205 O   0  0  0  0  0  0  0  0  0  0  0  0
    0.8708   -5.2284  -19.2162 C   0  0  0  0  0  0  0  0  0  0  0  0
    0.9772   -6.1631  -18.2088 C   0  0  0  0  0  0  0  0  0  0  0  0
    1.8412   -7.2164  -18.3301 F   0  0  0  0  0  0  0  0  0  0  0  0
    0.2143   -6.0642  -17.0458 C   0  0  0  0  0  0  0  0  0  0  0  0
  1  2  2  0
  2  3  1  0
  3  4  1  0
  4  5  1  0
  5  6  1  0
  6  7  1  0
  7  8  1  0
  8  9  1  0
  9 10  1  0
 10 11  1  0
 11 12  1  0
  4 13  2  0
 13 14  1  0
 14 15  2  0
 15 16  1  0
 16 17  1  0
 17 18  1  0
 18 19  1  0
 19 20  1  0
 20 21  1  0
 21 22  1  0
 22 23  1  0
 23 24  1  0
 22 25  1  0
 25 26  1  0
 25 27  2  0
 16 28  2  0
 28 29  1  0
 29 30  1  0
 29 31  2  0
 31  2  1  0
 12  7  1  0
 31 14  1  0
 24 19  1  0
M  END
$$$$
