
     RDKit          3D

 31 34  0  0  0  0  0  0  0  0999 V2000
    1.6414   -7.4555  -16.8175 O   0  0  0  0  0  0  0  0  0  0  0  0
    0.7699   -6.5856  -17.0714 C   0  0  0  0  0  0  0  0  0  0  0  0
    0.5478   -6.1232  -18.3108 N   0  0  0  0  0  0  0  0  0  0  0  0
   -0.4011   -5.1792  -18.5714 C   0  0  0  0  0  0  0  0  0  0  0  0
   -0.5702   -4.7308  -19.9766 C   0  0  0  0  0  0  0  0  0  0  0  0
    0.8213   -3.7866  -20.5990 S   0  0  0  0  0  0  0  0  0  0  0  0
    0.6763   -2.0219  -20.2321 C   0  0  0  0  0  0  0  0  0  0  0  0
    1.8949   -1.3273  -20.8459 C   0  0  0  0  0  0  0  0  0  0  0  0
    1.5721   -0.8142  -22.2326 C   0  0  0  0  0  0  0  0  0  0  0  0
    0.7534   -1.6846  -22.9431 O   0  0  0  0  0  0  0  0  0  0  0  0
   -0.4815   -1.8799  -22.3660 C   0  0  0  0  0  0  0  0  0  0  0  0
   -0.5399   -1.4099  -20.9222 C   0  0  0  0  0  0  0  0  0  0  0  0
   -1.1295   -4.7018  -17.5646 N   0  0  0  0  0  0  0  0  0  0  0  0
   -0.9349   -5.1419  -16.3082 C   0  0  0  0  0  0  0  0  0  0  0  0
   -1.6761   -4.6650  -15.2405 C   0  0  0  0  0  0  0  0  0  0  0  0
   -1.4953   -5.1010  -13.9404 C   0  0  0  0  0  0  0  0  0  0  0  0
   -2.2234   -4.6353  -12.8801 O   0  0  0  0  0  0  0  0  0  0  0  0
   -1.9420   -4.8596  -11.5343 C   0  0  0  0  0  0  0  0  0  0  0  0
   -2.1774   -3.6227  -10.6898 C   0  0  0  0  0  0  0  0  0  0  0  0
   -3.3459   -3.9168   -9.7740 C   0  0  0  0  0  0  0  0  0  0  0  0
   -3.5806   -2.7530   -8.8343 C   0  0  0  0  0  0  0  0  0  0  0  0
   -2.3550   -2.5900   -8.0485 N   0  0  0  0  0  0  0  0  0  0  0  0
   -1.2351   -3.4156   -8.3960 C   0  0  0  0  0  0  0  0  0  0  0  0
   -0.9332   -3.3854   -9.8751 C   0  0  0  0  0  0  0  0  0  0  0  0
   -2.3431   -1.6401   -7.0033 C   0  0  0  0  0  0  0  0  0  0  0  0
   -3.6144   -1.1967   -6.3786 C   0  0  0  0  0  0  0  0  0  0  0  0
   -1.2758   -1.1524   -6.5804 O   0  0  0  0  0  0  0  0  0  0  0  0
   -0.5323   -6.0600  -13.6708 C   0  0  0  0  0  0  0  0  0  0  0  0
    0.2184   -6.5502  -14.7178 C   0  0  0  0  0  0  0  0  0  0  0  0
    1.1795   -7.4978  -14.4965 F   0  0  0  0  0  0  0  0  0  0  0  0
    0.0225   -6.0991  -16.0226 C   0  0  0  0  0  0  0  0  0  0  0  0
  1  2  2  0
  2  3  1  0
  3  4  1  0
  4  5  1  0
  5  6  1  0
  6  7  1  0
  7  8  1  0
  8  9  1  0
  9 10  1  0
 10 11  1  0
 11 12  1  0
  4 13  2  0
 13 14  1  0
 14 15  2  0
 15 16  1  0
 16 17  1  0
 17 18  1  0
 18 19  1  0
 19 20  1  0
 20 21  1  0
 21 22  1  0
 22 23  1  0
 23 24  1  0
 22 25  1  0
 25 26  1  0
 25 27  2  0
 16 28  2  0
 28 29  1  0
 29 30  1  0
 29 31  2  0
 31  2  1  0
 12  7  1  0
 31 14  1  0
 24 19  1  0
M  END
$$$$
