
     RDKit          3D

 31 34  0  0  0  0  0  0  0  0999 V2000
    1.7659   -7.6342  -16.1050 O   0  0  0  0  0  0  0  0  0  0  0  0
    0.9969   -6.6731  -16.3615 C   0  0  0  0  0  0  0  0  0  0  0  0
    1.1548   -5.8860  -17.4360 N   0  0  0  0  0  0  0  0  0  0  0  0
    0.3127   -4.8469  -17.7016 C   0  0  0  0  0  0  0  0  0  0  0  0
    0.5720   -4.0328  -18.9158 C   0  0  0  0  0  0  0  0  0  0  0  0
   -0.5921   -2.6872  -19.1375 S   0  0  0  0  0  0  0  0  0  0  0  0
   -1.6744   -2.9399  -20.5638 C   0  0  0  0  0  0  0  0  0  0  0  0
   -2.5121   -1.6693  -20.7309 C   0  0  0  0  0  0  0  0  0  0  0  0
   -1.8525   -0.7225  -21.7101 C   0  0  0  0  0  0  0  0  0  0  0  0
   -0.4678   -0.7111  -21.5864 O   0  0  0  0  0  0  0  0  0  0  0  0
    0.1226   -1.9265  -21.8514 C   0  0  0  0  0  0  0  0  0  0  0  0
   -0.8696   -3.0774  -21.8535 C   0  0  0  0  0  0  0  0  0  0  0  0
   -0.6974   -4.6062  -16.8685 N   0  0  0  0  0  0  0  0  0  0  0  0
   -0.8872   -5.3745  -15.7805 C   0  0  0  0  0  0  0  0  0  0  0  0
   -1.9279   -5.1496  -14.8957 C   0  0  0  0  0  0  0  0  0  0  0  0
   -2.1443   -5.9247  -13.7707 C   0  0  0  0  0  0  0  0  0  0  0  0
   -3.1701   -5.7094  -12.8918 O   0  0  0  0  0  0  0  0  0  0  0  0
   -3.1191   -4.9003  -11.7589 C   0  0  0  0  0  0  0  0  0  0  0  0
   -4.4040   -4.9626  -10.9568 C   0  0  0  0  0  0  0  0  0  0  0  0
   -4.5031   -6.3542  -10.3701 C   0  0  0  0  0  0  0  0  0  0  0  0
   -5.7220   -6.4608   -9.4780 C   0  0  0  0  0  0  0  0  0  0  0  0
   -5.5504   -5.4753   -8.4077 N   0  0  0  0  0  0  0  0  0  0  0  0
   -4.4192   -4.5983   -8.4951 C   0  0  0  0  0  0  0  0  0  0  0  0
   -4.2991   -3.9453   -9.8513 C   0  0  0  0  0  0  0  0  0  0  0  0
   -6.4968   -5.4433   -7.3599 C   0  0  0  0  0  0  0  0  0  0  0  0
   -6.4931   -4.3284   -6.3800 C   0  0  0  0  0  0  0  0  0  0  0  0
   -7.3531   -6.3410   -7.2297 O   0  0  0  0  0  0  0  0  0  0  0  0
   -1.2911   -6.9816  -13.4968 C   0  0  0  0  0  0  0  0  0  0  0  0
   -0.2474   -7.2253  -14.3635 C   0  0  0  0  0  0  0  0  0  0  0  0
    0.6185   -8.2584  -14.1313 F   0  0  0  0  0  0  0  0  0  0  0  0
   -0.0443   -6.4335  -15.4931 C   0  0  0  0  0  0  0  0  0  0  0  0
  1  2  2  0
  2  3  1  0
  3  4  1  0
  4  5  1  0
  5  6  1  0
  6  7  1  0
  7  8  1  0
  8  9  1  0
  9 10  1  0
 10 11  1  0
 11 12  1  0
  4 13  2  0
 13 14  1  0
 14 15  2  0
 15 16  1  0
 16 17  1  0
 17 18  1  0
 18 19  1  0
 19 20  1  0
 20 21  1  0
 21 22  1  0
 22 23  1  0
 23 24  1  0
 22 25  1  0
 25 26  1  0
 25 27  2  0
 16 28  2  0
 28 29  1  0
 29 30  1  0
 29 31  2  0
 31  2  1  0
 12  7  1  0
 31 14  1  0
 24 19  1  0
M  END
$$$$
