
     RDKit          3D

 31 34  0  0  0  0  0  0  0  0999 V2000
    1.5186   -8.0352  -16.2770 O   0  0  0  0  0  0  0  0  0  0  0  0
    0.7268   -7.0750  -16.0983 C   0  0  0  0  0  0  0  0  0  0  0  0
    0.0668   -6.8853  -14.9461 N   0  0  0  0  0  0  0  0  0  0  0  0
   -0.7891   -5.8391  -14.7666 C   0  0  0  0  0  0  0  0  0  0  0  0
   -1.4733   -5.7160  -13.4548 C   0  0  0  0  0  0  0  0  0  0  0  0
   -2.3615   -7.1959  -12.9690 S   0  0  0  0  0  0  0  0  0  0  0  0
   -3.5809   -6.8739  -11.6731 C   0  0  0  0  0  0  0  0  0  0  0  0
   -4.6760   -7.9358  -11.8041 C   0  0  0  0  0  0  0  0  0  0  0  0
   -4.3869   -9.1126  -10.8975 C   0  0  0  0  0  0  0  0  0  0  0  0
   -3.0319   -9.4188  -10.8413 O   0  0  0  0  0  0  0  0  0  0  0  0
   -2.2552   -8.4048  -10.3267 C   0  0  0  0  0  0  0  0  0  0  0  0
   -2.9790   -7.0695  -10.2841 C   0  0  0  0  0  0  0  0  0  0  0  0
   -0.9754   -4.9794  -15.7659 N   0  0  0  0  0  0  0  0  0  0  0  0
   -0.3307   -5.1377  -16.9360 C   0  0  0  0  0  0  0  0  0  0  0  0
   -0.5034   -4.2610  -17.9936 C   0  0  0  0  0  0  0  0  0  0  0  0
    0.1473   -4.4018  -19.2059 C   0  0  0  0  0  0  0  0  0  0  0  0
   -0.0175   -3.5402  -20.2555 O   0  0  0  0  0  0  0  0  0  0  0  0
   -1.2360   -3.1070  -20.7733 C   0  0  0  0  0  0  0  0  0  0  0  0
   -1.0614   -2.3208  -22.0577 C   0  0  0  0  0  0  0  0  0  0  0  0
   -2.0090   -1.1422  -21.9982 C   0  0  0  0  0  0  0  0  0  0  0  0
   -1.8226   -0.2586  -23.2136 C   0  0  0  0  0  0  0  0  0  0  0  0
   -0.4351    0.2105  -23.1868 N   0  0  0  0  0  0  0  0  0  0  0  0
    0.4220   -0.3259  -22.1698 C   0  0  0  0  0  0  0  0  0  0  0  0
    0.3628   -1.8332  -22.1017 C   0  0  0  0  0  0  0  0  0  0  0  0
   -0.0217    1.1550  -24.1521 C   0  0  0  0  0  0  0  0  0  0  0  0
    1.3335    1.7560  -24.0808 C   0  0  0  0  0  0  0  0  0  0  0  0
   -0.7755    1.5068  -25.0816 O   0  0  0  0  0  0  0  0  0  0  0  0
    1.0179   -5.4634  -19.3929 C   0  0  0  0  0  0  0  0  0  0  0  0
    1.2063   -6.3497  -18.3542 C   0  0  0  0  0  0  0  0  0  0  0  0
    2.0569   -7.4115  -18.4958 F   0  0  0  0  0  0  0  0  0  0  0  0
    0.5418   -6.1923  -17.1386 C   0  0  0  0  0  0  0  0  0  0  0  0
  1  2  2  0
  2  3  1  0
  3  4  1  0
  4  5  1  0
  5  6  1  0
  6  7  1  0
  7  8  1  0
  8  9  1  0
  9 10  1  0
 10 11  1  0
 11 12  1  0
  4 13  2  0
 13 14  1  0
 14 15  2  0
 15 16  1  0
 16 17  1  0
 17 18  1  0
 18 19  1  0
 19 20  1  0
 20 21  1  0
 21 22  1  0
 22 23  1  0
 23 24  1  0
 22 25  1  0
 25 26  1  0
 25 27  2  0
 16 28  2  0
 28 29  1  0
 29 30  1  0
 29 31  2  0
 31  2  1  0
 12  7  1  0
 31 14  1  0
 24 19  1  0
M  END
$$$$
