
     RDKit          3D

 31 34  0  0  0  0  0  0  0  0999 V2000
    1.5465   -7.7431  -16.5317 O   0  0  0  0  0  0  0  0  0  0  0  0
    0.7099   -6.8991  -16.9424 C   0  0  0  0  0  0  0  0  0  0  0  0
    0.6287   -6.5264  -18.2283 N   0  0  0  0  0  0  0  0  0  0  0  0
   -0.2839   -5.6096  -18.6594 C   0  0  0  0  0  0  0  0  0  0  0  0
   -0.2939   -5.2621  -20.1029 C   0  0  0  0  0  0  0  0  0  0  0  0
    0.9463   -4.0489  -20.5556 S   0  0  0  0  0  0  0  0  0  0  0  0
    0.4653   -2.3672  -20.0968 C   0  0  0  0  0  0  0  0  0  0  0  0
    1.4377   -1.4097  -20.7910 C   0  0  0  0  0  0  0  0  0  0  0  0
    0.8725   -0.9462  -22.1162 C   0  0  0  0  0  0  0  0  0  0  0  0
    0.1908   -1.9566  -22.7849 O   0  0  0  0  0  0  0  0  0  0  0  0
   -0.9080   -2.4295  -22.1029 C   0  0  0  0  0  0  0  0  0  0  0  0
   -0.9178   -2.0180  -20.6402 C   0  0  0  0  0  0  0  0  0  0  0  0
   -1.1202   -5.0676  -17.7767 N   0  0  0  0  0  0  0  0  0  0  0  0
   -1.0682   -5.4171  -16.4785 C   0  0  0  0  0  0  0  0  0  0  0  0
   -1.9239   -4.8714  -15.5368 C   0  0  0  0  0  0  0  0  0  0  0  0
   -1.8905   -5.2138  -14.1971 C   0  0  0  0  0  0  0  0  0  0  0  0
   -2.7323   -4.6797  -13.2605 O   0  0  0  0  0  0  0  0  0  0  0  0
   -2.6255   -4.8385  -11.8807 C   0  0  0  0  0  0  0  0  0  0  0  0
   -2.1443   -3.5735  -11.1977 C   0  0  0  0  0  0  0  0  0  0  0  0
   -3.3563   -2.8971  -10.5943 C   0  0  0  0  0  0  0  0  0  0  0  0
   -2.9366   -1.6686   -9.8150 C   0  0  0  0  0  0  0  0  0  0  0  0
   -2.0372   -2.1277   -8.7538 N   0  0  0  0  0  0  0  0  0  0  0  0
   -1.6698   -3.5139   -8.7556 C   0  0  0  0  0  0  0  0  0  0  0  0
   -1.1879   -3.9811  -10.1082 C   0  0  0  0  0  0  0  0  0  0  0  0
   -1.5862   -1.1914   -7.7973 C   0  0  0  0  0  0  0  0  0  0  0  0
   -2.2223    0.1461   -7.6996 C   0  0  0  0  0  0  0  0  0  0  0  0
   -0.6510   -1.4590   -7.0165 O   0  0  0  0  0  0  0  0  0  0  0  0
   -0.9648   -6.1450  -13.7545 C   0  0  0  0  0  0  0  0  0  0  0  0
   -0.1020   -6.7023  -14.6737 C   0  0  0  0  0  0  0  0  0  0  0  0
    0.8272   -7.6255  -14.2799 F   0  0  0  0  0  0  0  0  0  0  0  0
   -0.1498   -6.3453  -16.0207 C   0  0  0  0  0  0  0  0  0  0  0  0
  1  2  2  0
  2  3  1  0
  3  4  1  0
  4  5  1  0
  5  6  1  0
  6  7  1  0
  7  8  1  0
  8  9  1  0
  9 10  1  0
 10 11  1  0
 11 12  1  0
  4 13  2  0
 13 14  1  0
 14 15  2  0
 15 16  1  0
 16 17  1  0
 17 18  1  0
 18 19  1  0
 19 20  1  0
 20 21  1  0
 21 22  1  0
 22 23  1  0
 23 24  1  0
 22 25  1  0
 25 26  1  0
 25 27  2  0
 16 28  2  0
 28 29  1  0
 29 30  1  0
 29 31  2  0
 31  2  1  0
 12  7  1  0
 31 14  1  0
 24 19  1  0
M  END
$$$$
