
     RDKit          3D

 31 34  0  0  0  0  0  0  0  0999 V2000
    1.7122   -7.5713  -16.0474 O   0  0  0  0  0  0  0  0  0  0  0  0
    0.7671   -6.7648  -15.8540 C   0  0  0  0  0  0  0  0  0  0  0  0
    0.1601   -6.6320  -14.6653 N   0  0  0  0  0  0  0  0  0  0  0  0
   -0.8639   -5.7529  -14.4703 C   0  0  0  0  0  0  0  0  0  0  0  0
   -1.4717   -5.6804  -13.1176 C   0  0  0  0  0  0  0  0  0  0  0  0
   -1.7417   -7.2863  -12.3672 S   0  0  0  0  0  0  0  0  0  0  0  0
   -3.4970   -7.6483  -12.1264 C   0  0  0  0  0  0  0  0  0  0  0  0
   -3.6182   -9.1480  -11.8433 C   0  0  0  0  0  0  0  0  0  0  0  0
   -3.6123   -9.4100  -10.3527 C   0  0  0  0  0  0  0  0  0  0  0  0
   -2.7350   -8.5746   -9.6706 O   0  0  0  0  0  0  0  0  0  0  0  0
   -3.0507   -7.2381   -9.7713 C   0  0  0  0  0  0  0  0  0  0  0  0
   -4.0427   -6.9475  -10.8850 C   0  0  0  0  0  0  0  0  0  0  0  0
   -1.2738   -5.0034  -15.4913 N   0  0  0  0  0  0  0  0  0  0  0  0
   -0.6888   -5.1093  -16.6982 C   0  0  0  0  0  0  0  0  0  0  0  0
   -1.0925   -4.3440  -17.7790 C   0  0  0  0  0  0  0  0  0  0  0  0
   -0.5077   -4.4342  -19.0292 C   0  0  0  0  0  0  0  0  0  0  0  0
   -0.9002   -3.6818  -20.1020 O   0  0  0  0  0  0  0  0  0  0  0  0
   -0.0651   -3.1815  -21.0986 C   0  0  0  0  0  0  0  0  0  0  0  0
   -0.3701   -1.7323  -21.4223 C   0  0  0  0  0  0  0  0  0  0  0  0
    0.9260   -1.0848  -21.8597 C   0  0  0  0  0  0  0  0  0  0  0  0
    0.6782    0.3464  -22.2873 C   0  0  0  0  0  0  0  0  0  0  0  0
   -0.2619    0.2958  -23.4098 N   0  0  0  0  0  0  0  0  0  0  0  0
   -0.8065   -0.9850  -23.7555 C   0  0  0  0  0  0  0  0  0  0  0  0
   -1.3597   -1.7190  -22.5575 C   0  0  0  0  0  0  0  0  0  0  0  0
   -0.5768    1.4968  -24.0829 C   0  0  0  0  0  0  0  0  0  0  0  0
   -1.5403    1.4932  -25.2119 C   0  0  0  0  0  0  0  0  0  0  0  0
   -0.0598    2.5826  -23.7513 O   0  0  0  0  0  0  0  0  0  0  0  0
    0.5331   -5.3260  -19.2321 C   0  0  0  0  0  0  0  0  0  0  0  0
    0.9527   -6.0990  -18.1708 C   0  0  0  0  0  0  0  0  0  0  0  0
    1.9769   -6.9920  -18.3269 F   0  0  0  0  0  0  0  0  0  0  0  0
    0.3515   -5.9949  -16.9170 C   0  0  0  0  0  0  0  0  0  0  0  0
  1  2  2  0
  2  3  1  0
  3  4  1  0
  4  5  1  0
  5  6  1  0
  6  7  1  0
  7  8  1  0
  8  9  1  0
  9 10  1  0
 10 11  1  0
 11 12  1  0
  4 13  2  0
 13 14  1  0
 14 15  2  0
 15 16  1  0
 16 17  1  0
 17 18  1  0
 18 19  1  0
 19 20  1  0
 20 21  1  0
 21 22  1  0
 22 23  1  0
 23 24  1  0
 22 25  1  0
 25 26  1  0
 25 27  2  0
 16 28  2  0
 28 29  1  0
 29 30  1  0
 29 31  2  0
 31  2  1  0
 12  7  1  0
 31 14  1  0
 24 19  1  0
M  END
$$$$
