
     RDKit          3D

 31 34  0  0  0  0  0  0  0  0999 V2000
    1.3307   -7.5971  -16.1939 O   0  0  0  0  0  0  0  0  0  0  0  0
    0.7037   -6.5681  -16.5529 C   0  0  0  0  0  0  0  0  0  0  0  0
    0.8245   -6.0372  -17.7787 N   0  0  0  0  0  0  0  0  0  0  0  0
    0.1381   -4.9204  -18.1542 C   0  0  0  0  0  0  0  0  0  0  0  0
    0.3406   -4.4089  -19.5332 C   0  0  0  0  0  0  0  0  0  0  0  0
   -0.0772   -2.6755  -19.7223 S   0  0  0  0  0  0  0  0  0  0  0  0
   -1.8173   -2.4283  -20.1475 C   0  0  0  0  0  0  0  0  0  0  0  0
   -2.0381   -0.9215  -20.3056 C   0  0  0  0  0  0  0  0  0  0  0  0
   -1.8806   -0.5100  -21.7534 C   0  0  0  0  0  0  0  0  0  0  0  0
   -0.8581   -1.2011  -22.3933 O   0  0  0  0  0  0  0  0  0  0  0  0
   -1.0627   -2.5614  -22.4555 C   0  0  0  0  0  0  0  0  0  0  0  0
   -2.1486   -3.0397  -21.5064 C   0  0  0  0  0  0  0  0  0  0  0  0
   -0.6771   -4.3390  -17.2768 N   0  0  0  0  0  0  0  0  0  0  0  0
   -0.8237   -4.8431  -16.0382 C   0  0  0  0  0  0  0  0  0  0  0  0
   -1.6635   -4.2614  -15.1037 C   0  0  0  0  0  0  0  0  0  0  0  0
   -1.8313   -4.7601  -13.8245 C   0  0  0  0  0  0  0  0  0  0  0  0
   -2.6590   -4.1917  -12.8956 O   0  0  0  0  0  0  0  0  0  0  0  0
   -3.2817   -4.8557  -11.8410 C   0  0  0  0  0  0  0  0  0  0  0  0
   -2.8079   -4.3517  -10.4921 C   0  0  0  0  0  0  0  0  0  0  0  0
   -1.3375   -4.0186  -10.6255 C   0  0  0  0  0  0  0  0  0  0  0  0
   -0.8168   -3.4211   -9.3353 C   0  0  0  0  0  0  0  0  0  0  0  0
   -1.5886   -2.1998   -9.0930 N   0  0  0  0  0  0  0  0  0  0  0  0
   -2.6746   -1.9188   -9.9864 C   0  0  0  0  0  0  0  0  0  0  0  0
   -3.5901   -3.1051  -10.1726 C   0  0  0  0  0  0  0  0  0  0  0  0
   -1.2253   -1.3747   -8.0057 C   0  0  0  0  0  0  0  0  0  0  0  0
   -2.0627   -0.2053   -7.6394 C   0  0  0  0  0  0  0  0  0  0  0  0
   -0.2018   -1.6030   -7.3302 O   0  0  0  0  0  0  0  0  0  0  0  0
   -1.1359   -5.8946  -13.4386 C   0  0  0  0  0  0  0  0  0  0  0  0
   -0.2936   -6.4917  -14.3518 C   0  0  0  0  0  0  0  0  0  0  0  0
    0.4119   -7.6134  -14.0127 F   0  0  0  0  0  0  0  0  0  0  0  0
   -0.1365   -5.9752  -15.6374 C   0  0  0  0  0  0  0  0  0  0  0  0
  1  2  2  0
  2  3  1  0
  3  4  1  0
  4  5  1  0
  5  6  1  0
  6  7  1  0
  7  8  1  0
  8  9  1  0
  9 10  1  0
 10 11  1  0
 11 12  1  0
  4 13  2  0
 13 14  1  0
 14 15  2  0
 15 16  1  0
 16 17  1  0
 17 18  1  0
 18 19  1  0
 19 20  1  0
 20 21  1  0
 21 22  1  0
 22 23  1  0
 23 24  1  0
 22 25  1  0
 25 26  1  0
 25 27  2  0
 16 28  2  0
 28 29  1  0
 29 30  1  0
 29 31  2  0
 31  2  1  0
 12  7  1  0
 31 14  1  0
 24 19  1  0
M  END
$$$$
