
     RDKit          3D

 31 34  0  0  0  0  0  0  0  0999 V2000
    1.6854   -7.5471  -16.4539 O   0  0  0  0  0  0  0  0  0  0  0  0
    0.8551   -6.6961  -16.8627 C   0  0  0  0  0  0  0  0  0  0  0  0
    0.7770   -6.3194  -18.1477 N   0  0  0  0  0  0  0  0  0  0  0  0
   -0.1288   -5.3949  -18.5767 C   0  0  0  0  0  0  0  0  0  0  0  0
   -0.1358   -5.0437  -20.0193 C   0  0  0  0  0  0  0  0  0  0  0  0
    1.2263   -3.9833  -20.5044 S   0  0  0  0  0  0  0  0  0  0  0  0
    0.9462   -2.2536  -20.0576 C   0  0  0  0  0  0  0  0  0  0  0  0
    2.0236   -1.4218  -20.7588 C   0  0  0  0  0  0  0  0  0  0  0  0
    1.5154   -0.9046  -22.0872 C   0  0  0  0  0  0  0  0  0  0  0  0
    0.7192   -1.8328  -22.7486 O   0  0  0  0  0  0  0  0  0  0  0  0
   -0.4268   -2.1687  -22.0630 C   0  0  0  0  0  0  0  0  0  0  0  0
   -0.3868   -1.7485  -20.6033 C   0  0  0  0  0  0  0  0  0  0  0  0
   -0.9614   -4.8492  -17.6928 N   0  0  0  0  0  0  0  0  0  0  0  0
   -0.9123   -5.2023  -16.3956 C   0  0  0  0  0  0  0  0  0  0  0  0
   -1.7643   -4.6529  -15.4527 C   0  0  0  0  0  0  0  0  0  0  0  0
   -1.7339   -4.9990  -14.1138 C   0  0  0  0  0  0  0  0  0  0  0  0
   -2.5721   -4.4612  -13.1761 O   0  0  0  0  0  0  0  0  0  0  0  0
   -2.5081   -4.6797  -11.8018 C   0  0  0  0  0  0  0  0  0  0  0  0
   -2.0385   -3.4492  -11.0511 C   0  0  0  0  0  0  0  0  0  0  0  0
   -3.2646   -2.6240  -10.7248 C   0  0  0  0  0  0  0  0  0  0  0  0
   -2.8787   -1.4196   -9.8922 C   0  0  0  0  0  0  0  0  0  0  0  0
   -2.2760   -1.9329   -8.6596 N   0  0  0  0  0  0  0  0  0  0  0  0
   -2.0756   -3.3497   -8.5649 C   0  0  0  0  0  0  0  0  0  0  0  0
   -1.3805   -3.9164   -9.7796 C   0  0  0  0  0  0  0  0  0  0  0  0
   -1.9295   -1.0155   -7.6432 C   0  0  0  0  0  0  0  0  0  0  0  0
   -1.3336   -1.4954   -6.3713 C   0  0  0  0  0  0  0  0  0  0  0  0
   -2.1126    0.2103   -7.7840 O   0  0  0  0  0  0  0  0  0  0  0  0
   -0.8151   -5.9379  -13.6733 C   0  0  0  0  0  0  0  0  0  0  0  0
    0.0439   -6.4991  -14.5937 C   0  0  0  0  0  0  0  0  0  0  0  0
    0.9663   -7.4300  -14.2021 F   0  0  0  0  0  0  0  0  0  0  0  0
   -0.0009   -6.1383  -15.9398 C   0  0  0  0  0  0  0  0  0  0  0  0
  1  2  2  0
  2  3  1  0
  3  4  1  0
  4  5  1  0
  5  6  1  0
  6  7  1  0
  7  8  1  0
  8  9  1  0
  9 10  1  0
 10 11  1  0
 11 12  1  0
  4 13  2  0
 13 14  1  0
 14 15  2  0
 15 16  1  0
 16 17  1  0
 17 18  1  0
 18 19  1  0
 19 20  1  0
 20 21  1  0
 21 22  1  0
 22 23  1  0
 23 24  1  0
 22 25  1  0
 25 26  1  0
 25 27  2  0
 16 28  2  0
 28 29  1  0
 29 30  1  0
 29 31  2  0
 31  2  1  0
 12  7  1  0
 31 14  1  0
 24 19  1  0
M  END
$$$$
