
     RDKit          3D

 31 34  0  0  0  0  0  0  0  0999 V2000
    1.4173   -7.8100  -15.9657 O   0  0  0  0  0  0  0  0  0  0  0  0
    0.7894   -6.9373  -16.6176 C   0  0  0  0  0  0  0  0  0  0  0  0
    0.8695   -6.8334  -17.9525 N   0  0  0  0  0  0  0  0  0  0  0  0
    0.1825   -5.8816  -18.6464 C   0  0  0  0  0  0  0  0  0  0  0  0
    0.3381   -5.8473  -20.1225 C   0  0  0  0  0  0  0  0  0  0  0  0
    1.4377   -4.5525  -20.6965 S   0  0  0  0  0  0  0  0  0  0  0  0
    0.8277   -2.8995  -20.2894 C   0  0  0  0  0  0  0  0  0  0  0  0
    1.7910   -1.8904  -20.9202 C   0  0  0  0  0  0  0  0  0  0  0  0
    1.2980   -1.4674  -22.2871 C   0  0  0  0  0  0  0  0  0  0  0  0
    0.7266   -2.5194  -22.9940 O   0  0  0  0  0  0  0  0  0  0  0  0
   -0.3898   -3.0523  -22.3890 C   0  0  0  0  0  0  0  0  0  0  0  0
   -0.5300   -2.6347  -20.9348 C   0  0  0  0  0  0  0  0  0  0  0  0
   -0.5916   -5.0291  -17.9782 N   0  0  0  0  0  0  0  0  0  0  0  0
   -0.6965   -5.1030  -16.6390 C   0  0  0  0  0  0  0  0  0  0  0  0
   -1.4929   -4.2312  -15.9161 C   0  0  0  0  0  0  0  0  0  0  0  0
   -1.6176   -4.2863  -14.5397 C   0  0  0  0  0  0  0  0  0  0  0  0
   -2.4023   -3.4292  -13.8180 O   0  0  0  0  0  0  0  0  0  0  0  0
   -2.1895   -2.0613  -13.6628 C   0  0  0  0  0  0  0  0  0  0  0  0
   -3.1519   -1.4451  -12.6666 C   0  0  0  0  0  0  0  0  0  0  0  0
   -2.3231   -0.7408  -11.6142 C   0  0  0  0  0  0  0  0  0  0  0  0
   -3.2243   -0.0224  -10.6321 C   0  0  0  0  0  0  0  0  0  0  0  0
   -3.9946    0.9566  -11.4030 N   0  0  0  0  0  0  0  0  0  0  0  0
   -3.8406    0.9407  -12.8287 C   0  0  0  0  0  0  0  0  0  0  0  0
   -3.9963   -0.4441  -13.4102 C   0  0  0  0  0  0  0  0  0  0  0  0
   -4.8369    1.8527  -10.7084 C   0  0  0  0  0  0  0  0  0  0  0  0
   -4.5264    2.2426   -9.3104 C   0  0  0  0  0  0  0  0  0  0  0  0
   -5.8542    2.3363  -11.2443 O   0  0  0  0  0  0  0  0  0  0  0  0
   -0.9214   -5.2518  -13.8304 C   0  0  0  0  0  0  0  0  0  0  0  0
   -0.1218   -6.1313  -14.5283 C   0  0  0  0  0  0  0  0  0  0  0  0
    0.5826   -7.1000  -13.8679 F   0  0  0  0  0  0  0  0  0  0  0  0
   -0.0080   -6.0611  -15.9162 C   0  0  0  0  0  0  0  0  0  0  0  0
  1  2  2  0
  2  3  1  0
  3  4  1  0
  4  5  1  0
  5  6  1  0
  6  7  1  0
  7  8  1  0
  8  9  1  0
  9 10  1  0
 10 11  1  0
 11 12  1  0
  4 13  2  0
 13 14  1  0
 14 15  2  0
 15 16  1  0
 16 17  1  0
 17 18  1  0
 18 19  1  0
 19 20  1  0
 20 21  1  0
 21 22  1  0
 22 23  1  0
 23 24  1  0
 22 25  1  0
 25 26  1  0
 25 27  2  0
 16 28  2  0
 28 29  1  0
 29 30  1  0
 29 31  2  0
 31  2  1  0
 12  7  1  0
 31 14  1  0
 24 19  1  0
M  END
$$$$
