
     RDKit          3D

 31 34  0  0  0  0  0  0  0  0999 V2000
    1.3103   -7.6811  -15.8098 O   0  0  0  0  0  0  0  0  0  0  0  0
    0.4658   -6.7512  -15.8613 C   0  0  0  0  0  0  0  0  0  0  0  0
   -0.3357   -6.4428  -14.8308 N   0  0  0  0  0  0  0  0  0  0  0  0
   -1.2473   -5.4312  -14.9011 C   0  0  0  0  0  0  0  0  0  0  0  0
   -2.0895   -5.1682  -13.7070 C   0  0  0  0  0  0  0  0  0  0  0  0
   -1.2341   -5.4374  -12.1544 S   0  0  0  0  0  0  0  0  0  0  0  0
   -2.2750   -5.0724  -10.7215 C   0  0  0  0  0  0  0  0  0  0  0  0
   -1.3788   -5.1275   -9.4814 C   0  0  0  0  0  0  0  0  0  0  0  0
   -0.8546   -3.7489   -9.1424 C   0  0  0  0  0  0  0  0  0  0  0  0
   -0.5421   -3.0065  -10.2756 O   0  0  0  0  0  0  0  0  0  0  0  0
   -1.6231   -2.7589  -11.0918 C   0  0  0  0  0  0  0  0  0  0  0  0
   -2.8161   -3.6462  -10.7778 C   0  0  0  0  0  0  0  0  0  0  0  0
   -1.3450   -4.7280  -16.0273 N   0  0  0  0  0  0  0  0  0  0  0  0
   -0.5577   -5.0086  -17.0815 C   0  0  0  0  0  0  0  0  0  0  0  0
   -0.6355   -4.2957  -18.2659 C   0  0  0  0  0  0  0  0  0  0  0  0
    0.1621   -4.5645  -19.3635 C   0  0  0  0  0  0  0  0  0  0  0  0
    0.0918   -3.8650  -20.5369 O   0  0  0  0  0  0  0  0  0  0  0  0
   -0.5974   -2.6709  -20.7362 C   0  0  0  0  0  0  0  0  0  0  0  0
   -0.4390   -2.1518  -22.1517 C   0  0  0  0  0  0  0  0  0  0  0  0
   -1.3589   -0.9593  -22.3010 C   0  0  0  0  0  0  0  0  0  0  0  0
   -1.1849   -0.3316  -23.6679 C   0  0  0  0  0  0  0  0  0  0  0  0
    0.2128    0.0973  -23.7616 N   0  0  0  0  0  0  0  0  0  0  0  0
    1.0840   -0.2557  -22.6785 C   0  0  0  0  0  0  0  0  0  0  0  0
    0.9938   -1.7195  -22.3192 C   0  0  0  0  0  0  0  0  0  0  0  0
    0.6215    0.8268  -24.8998 C   0  0  0  0  0  0  0  0  0  0  0  0
    2.0173    1.3187  -25.0137 C   0  0  0  0  0  0  0  0  0  0  0  0
   -0.1702    1.0756  -25.8311 O   0  0  0  0  0  0  0  0  0  0  0  0
    1.0898   -5.5915  -19.2967 C   0  0  0  0  0  0  0  0  0  0  0  0
    1.1859   -6.3156  -18.1277 C   0  0  0  0  0  0  0  0  0  0  0  0
    2.0882   -7.3376  -18.0185 F   0  0  0  0  0  0  0  0  0  0  0  0
    0.3735   -6.0307  -17.0308 C   0  0  0  0  0  0  0  0  0  0  0  0
  1  2  2  0
  2  3  1  0
  3  4  1  0
  4  5  1  0
  5  6  1  0
  6  7  1  0
  7  8  1  0
  8  9  1  0
  9 10  1  0
 10 11  1  0
 11 12  1  0
  4 13  2  0
 13 14  1  0
 14 15  2  0
 15 16  1  0
 16 17  1  0
 17 18  1  0
 18 19  1  0
 19 20  1  0
 20 21  1  0
 21 22  1  0
 22 23  1  0
 23 24  1  0
 22 25  1  0
 25 26  1  0
 25 27  2  0
 16 28  2  0
 28 29  1  0
 29 30  1  0
 29 31  2  0
 31  2  1  0
 12  7  1  0
 31 14  1  0
 24 19  1  0
M  END
$$$$
