
     RDKit          3D

 31 34  0  0  0  0  0  0  0  0999 V2000
    2.0591   -7.4657  -16.2765 O   0  0  0  0  0  0  0  0  0  0  0  0
    1.2022   -6.6855  -16.7643 C   0  0  0  0  0  0  0  0  0  0  0  0
    1.1763   -6.3602  -18.0653 N   0  0  0  0  0  0  0  0  0  0  0  0
    0.2407   -5.5124  -18.5804 C   0  0  0  0  0  0  0  0  0  0  0  0
    0.2965   -5.2133  -20.0335 C   0  0  0  0  0  0  0  0  0  0  0  0
    1.2086   -3.7193  -20.4223 S   0  0  0  0  0  0  0  0  0  0  0  0
    0.2207   -2.2248  -20.1765 C   0  0  0  0  0  0  0  0  0  0  0  0
    1.0401   -1.0448  -20.7057 C   0  0  0  0  0  0  0  0  0  0  0  0
    0.6790   -0.7499  -22.1455 C   0  0  0  0  0  0  0  0  0  0  0  0
    0.4455   -1.9060  -22.8815 O   0  0  0  0  0  0  0  0  0  0  0  0
   -0.6155   -2.6525  -22.4197 C   0  0  0  0  0  0  0  0  0  0  0  0
   -1.0517   -2.2560  -21.0192 C   0  0  0  0  0  0  0  0  0  0  0  0
   -0.6752   -4.9915  -17.7668 N   0  0  0  0  0  0  0  0  0  0  0  0
   -0.6804   -5.2949  -16.4561 C   0  0  0  0  0  0  0  0  0  0  0  0
   -1.6195   -4.7695  -15.5849 C   0  0  0  0  0  0  0  0  0  0  0  0
   -1.6460   -5.0656  -14.2340 C   0  0  0  0  0  0  0  0  0  0  0  0
   -2.5703   -4.5511  -13.3668 O   0  0  0  0  0  0  0  0  0  0  0  0
   -2.6998   -3.2103  -13.0115 C   0  0  0  0  0  0  0  0  0  0  0  0
   -1.9924   -2.8960  -11.7080 C   0  0  0  0  0  0  0  0  0  0  0  0
   -2.2664   -1.4432  -11.3844 C   0  0  0  0  0  0  0  0  0  0  0  0
   -1.6631   -1.0827  -10.0432 C   0  0  0  0  0  0  0  0  0  0  0  0
   -2.2993   -1.9479   -9.0469 N   0  0  0  0  0  0  0  0  0  0  0  0
   -3.1921   -2.9615   -9.5287 C   0  0  0  0  0  0  0  0  0  0  0  0
   -2.5870   -3.7804  -10.6438 C   0  0  0  0  0  0  0  0  0  0  0  0
   -2.0029   -1.7391   -7.6818 C   0  0  0  0  0  0  0  0  0  0  0  0
   -2.6495   -2.5730   -6.6380 C   0  0  0  0  0  0  0  0  0  0  0  0
   -1.1982   -0.8577   -7.3189 O   0  0  0  0  0  0  0  0  0  0  0  0
   -0.6974   -5.9265  -13.7062 C   0  0  0  0  0  0  0  0  0  0  0  0
    0.2481   -6.4624  -14.5541 C   0  0  0  0  0  0  0  0  0  0  0  0
    1.2027   -7.3168  -14.0751 F   0  0  0  0  0  0  0  0  0  0  0  0
    0.2599   -6.1528  -15.9136 C   0  0  0  0  0  0  0  0  0  0  0  0
  1  2  2  0
  2  3  1  0
  3  4  1  0
  4  5  1  0
  5  6  1  0
  6  7  1  0
  7  8  1  0
  8  9  1  0
  9 10  1  0
 10 11  1  0
 11 12  1  0
  4 13  2  0
 13 14  1  0
 14 15  2  0
 15 16  1  0
 16 17  1  0
 17 18  1  0
 18 19  1  0
 19 20  1  0
 20 21  1  0
 21 22  1  0
 22 23  1  0
 23 24  1  0
 22 25  1  0
 25 26  1  0
 25 27  2  0
 16 28  2  0
 28 29  1  0
 29 30  1  0
 29 31  2  0
 31  2  1  0
 12  7  1  0
 31 14  1  0
 24 19  1  0
M  END
$$$$
