
     RDKit          3D

 26 29  0  0  0  0  0  0  0  0999 V2000
   -0.8044  -51.9132  -30.6202 S   0  0  0  0  0  0  0  0  0  0  0  0
   -0.7751  -53.5980  -30.0515 C   0  0  2  0  0  0  0  0  0  0  0  0
   -0.6182  -54.6050  -31.1684 C   0  0  0  0  0  0  0  0  0  0  0  0
   -0.6699  -56.0218  -30.7023 C   0  0  0  0  0  0  0  0  0  0  0  0
   -1.7009  -56.2914  -29.6452 C   0  0  1  0  0  0  0  0  0  0  0  0
   -1.0153  -56.4464  -28.4292 O   0  0  0  0  0  0  0  0  0  0  0  0
   -2.6467  -55.1228  -29.4610 C   0  0  0  0  0  0  0  0  0  0  0  0
   -1.8871  -53.8687  -29.1073 C   0  0  0  0  0  0  0  0  0  0  0  0
   -0.9470  -50.6493  -29.3837 C   0  0  0  0  0  0  0  0  0  0  0  0
    0.1669  -49.6758  -29.3433 C   0  0  0  0  0  0  0  0  0  0  0  0
    0.3469  -48.7887  -30.3364 N   0  0  0  0  0  0  0  0  0  0  0  0
    1.3108  -47.8646  -30.3663 C   0  0  0  0  0  0  0  0  0  0  0  0
    1.4711  -47.0381  -31.3009 O   0  0  0  0  0  0  0  0  0  0  0  0
    2.2064  -47.7890  -29.3121 C   0  0  0  0  0  0  0  0  0  0  0  0
    2.0393  -48.6911  -28.2818 C   0  0  0  0  0  0  0  0  0  0  0  0
    1.0465  -49.5976  -28.3136 N   0  0  0  0  0  0  0  0  0  0  0  0
    2.9348  -48.6048  -27.2402 C   0  0  0  0  0  0  0  0  0  0  0  0
    3.9542  -47.6773  -27.2000 C   0  0  0  0  0  0  0  0  0  0  0  0
    4.8479  -47.6162  -26.1245 O   0  0  0  0  0  0  0  0  0  0  0  0
    4.6352  -48.3760  -24.9510 C   0  0  0  0  0  0  0  0  0  0  0  0
    5.5727  -47.8964  -23.8875 C   0  0  0  0  0  0  0  0  0  0  0  0
    6.0721  -48.8139  -22.8394 C   0  0  0  0  0  0  0  0  0  0  0  0
    7.0077  -48.4175  -23.9750 C   0  0  0  0  0  0  0  0  0  0  0  0
    4.0842  -46.7937  -28.2526 C   0  0  0  0  0  0  0  0  0  0  0  0
    3.2091  -46.8455  -29.3161 C   0  0  0  0  0  0  0  0  0  0  0  0
    3.3289  -45.9734  -30.3671 F   0  0  0  0  0  0  0  0  0  0  0  0
  2  1  1  6
  2  3  1  0
  3  4  1  0
  4  5  1  0
  5  6  1  1
  5  7  1  0
  7  8  1  0
  1  9  1  0
  9 10  1  0
 10 11  1  0
 11 12  1  0
 12 13  2  0
 12 14  1  0
 14 15  2  0
 15 16  1  0
 15 17  1  0
 17 18  2  0
 18 19  1  0
 19 20  1  0
 20 21  1  0
 21 22  1  0
 22 23  1  0
 18 24  1  0
 24 25  2  0
 25 26  1  0
  8  2  1  0
 16 10  2  0
 23 21  1  0
 25 14  1  0
M  END
$$$$
