
     RDKit          3D

 26 29  0  0  0  0  0  0  0  0999 V2000
   26.0357  -31.2189  -41.6481 S   0  0  0  0  0  0  0  0  0  0  0  0
   25.7960  -32.8168  -42.3910 C   0  0  2  0  0  0  0  0  0  0  0  0
   25.1224  -32.7542  -43.7433 C   0  0  0  0  0  0  0  0  0  0  0  0
   24.8512  -34.0973  -44.3346 C   0  0  0  0  0  0  0  0  0  0  0  0
   24.3708  -35.1243  -43.3509 C   0  0  1  0  0  0  0  0  0  0  0  0
   25.4407  -36.0031  -43.1151 O   0  0  0  0  0  0  0  0  0  0  0  0
   24.0155  -34.5089  -42.0132 C   0  0  0  0  0  0  0  0  0  0  0  0
   25.1969  -33.7750  -41.4297 C   0  0  0  0  0  0  0  0  0  0  0  0
   26.8383  -31.1796  -40.0665 C   0  0  0  0  0  0  0  0  0  0  0  0
   26.6437  -29.9351  -39.2897 C   0  0  0  0  0  0  0  0  0  0  0  0
   25.7884  -28.9861  -39.7062 N   0  0  0  0  0  0  0  0  0  0  0  0
   25.5385  -27.8474  -39.0543 C   0  0  0  0  0  0  0  0  0  0  0  0
   24.7357  -26.9646  -39.4525 O   0  0  0  0  0  0  0  0  0  0  0  0
   26.1923  -27.5963  -37.8591 C   0  0  0  0  0  0  0  0  0  0  0  0
   27.0752  -28.5582  -37.4134 C   0  0  0  0  0  0  0  0  0  0  0  0
   27.2813  -29.6844  -38.1189 N   0  0  0  0  0  0  0  0  0  0  0  0
   27.7173  -28.2972  -36.2244 C   0  0  0  0  0  0  0  0  0  0  0  0
   27.5100  -27.1457  -35.4950 C   0  0  0  0  0  0  0  0  0  0  0  0
   28.1795  -26.9117  -34.2882 O   0  0  0  0  0  0  0  0  0  0  0  0
   29.0191  -27.8939  -33.7137 C   0  0  0  0  0  0  0  0  0  0  0  0
   29.3872  -27.4650  -32.3278 C   0  0  0  0  0  0  0  0  0  0  0  0
   30.7965  -27.4686  -31.8766 C   0  0  0  0  0  0  0  0  0  0  0  0
   30.1372  -26.1371  -32.2147 C   0  0  0  0  0  0  0  0  0  0  0  0
   26.6176  -26.2101  -35.9784 C   0  0  0  0  0  0  0  0  0  0  0  0
   25.9531  -26.4313  -37.1654 C   0  0  0  0  0  0  0  0  0  0  0  0
   25.0650  -25.5089  -37.6554 F   0  0  0  0  0  0  0  0  0  0  0  0
  2  1  1  1
  2  3  1  0
  3  4  1  0
  4  5  1  0
  5  6  1  1
  5  7  1  0
  7  8  1  0
  1  9  1  0
  9 10  1  0
 10 11  1  0
 11 12  1  0
 12 13  2  0
 12 14  1  0
 14 15  2  0
 15 16  1  0
 15 17  1  0
 17 18  2  0
 18 19  1  0
 19 20  1  0
 20 21  1  0
 21 22  1  0
 22 23  1  0
 18 24  1  0
 24 25  2  0
 25 26  1  0
  8  2  1  0
 16 10  2  0
 23 21  1  0
 25 14  1  0
M  END
$$$$
